@<TRIPOS>MOLECULE
default_name
15508  7672  7836     0     1 
SMALL
USER_CHARGES
@<TRIPOS>ATOM
  1 TO2     2.937000    0.000000  107.351000 T     1 GLP     0.6000 ****
  2 TO1     3.211000    0.000000  117.348000 T     1 GLP    -0.6000 ****
  3 HO1     3.484000    0.000000  127.344000 H     1 GLP     0.4000 ****
  4 TO2    -4.210000    2.854000  107.271000 T     2 GLP     0.6000 ****
  5 TO1    -4.602000    3.120000  117.260000 T     2 GLP    -0.6000 ****
  6 HO1    -4.994000    3.386000  127.249000 H     2 GLP     0.4000 ****
  7 TO2    -4.212000   -5.037000  107.191000 T     3 GLP     0.6000 ****
  8 TO1    -4.604000   -5.505000  117.172000 T     3 GLP    -0.6000 ****
  9 HO1    -4.996000   -5.974000  127.153000 H     3 GLP     0.4000 ****
 10 TO2     3.326000   -7.019000  107.110000 T     4 GLP     0.6000 ****
 11 TO1     3.635000   -7.672000  117.084000 T     4 GLP    -0.6000 ****
 12 HO1     3.945000   -8.326000  127.058000 H     4 GLP     0.4000 ****
 13 TO2     8.685000   -1.451000  107.030000 T     5 GLP     0.6000 ****
 14 TO1     9.494000   -1.586000  116.996000 T     5 GLP    -0.6000 ****
 15 HO1    10.302000   -1.721000  126.963000 H     5 GLP     0.4000 ****
 16 TO2     7.545000    6.148000  106.950000 T     6 GLP     0.6000 ****
 17 TO1     8.248000    6.720000  116.909000 T     6 GLP    -0.6000 ****
 18 HO1     8.950000    7.293000  126.867000 H     6 GLP     0.4000 ****
 19 TO2     1.253000   10.504000  106.869000 T     7 GLP     0.6000 ****
 20 TO1     1.370000   11.482000  116.821000 T     7 GLP    -0.6000 ****
 21 HO1     1.487000   12.460000  126.772000 H     7 GLP     0.4000 ****
 22 TO2    -6.303000    9.452000  106.789000 T     8 GLP     0.6000 ****
 23 TO1    -6.890000   10.333000  116.733000 T     8 GLP    -0.6000 ****
 24 HO1    -7.477000   11.213000  126.677000 H     8 GLP     0.4000 ****
 25 TO2   -11.461000    3.856000  106.709000 T     9 GLP     0.6000 ****
 26 TO1   -12.529000    4.215000  116.645000 T     9 GLP    -0.6000 ****
 27 HO1   -13.596000    4.574000  126.581000 H     9 GLP     0.4000 ****
 28 TO2   -12.234000   -3.702000  106.628000 T    10 GLP     0.6000 ****
 29 TO1   -13.373000   -4.047000  116.557000 T    10 GLP    -0.6000 ****
 30 HO1   -14.512000   -4.392000  126.486000 H    10 GLP     0.4000 ****
 31 TO2    -8.571000  -10.346000  106.548000 T    11 GLP     0.6000 ****
 32 TO1    -9.370000  -11.309000  116.469000 T    11 GLP    -0.6000 ****
 33 HO1   -10.168000  -12.272000  126.391000 H    11 GLP     0.4000 ****
 34 TO2    -1.896000  -13.929000  106.468000 T    12 GLP     0.6000 ****
 35 TO1    -2.073000  -15.226000  116.382000 T    12 GLP    -0.6000 ****
 36 HO1    -2.249000  -16.523000  126.296000 H    12 GLP     0.4000 ****
 37 TO2     5.661000  -13.516000  106.387000 T    13 GLP     0.6000 ****
 38 TO1     6.188000  -14.774000  116.294000 T    13 GLP    -0.6000 ****
 39 HO1     6.715000  -16.033000  126.200000 H    13 GLP     0.4000 ****
 40 TO2    11.992000   -9.381000  106.307000 T    14 GLP     0.6000 ****
 41 TO1    13.109000  -10.255000  116.206000 T    14 GLP    -0.6000 ****
 42 HO1    14.225000  -11.128000  126.105000 H    14 GLP     0.4000 ****
 43 TO2    15.542000   -2.711000  106.227000 T    15 GLP     0.6000 ****
 44 TO1    16.989000   -2.964000  116.118000 T    15 GLP    -0.6000 ****
 45 HO1    18.436000   -3.216000  126.010000 H    15 GLP     0.4000 ****
 46 TO2    15.574000    4.839000  106.146000 T    16 GLP     0.6000 ****
 47 TO1    17.024000    5.290000  116.030000 T    16 GLP    -0.6000 ****
 48 HO1    18.474000    5.741000  125.914000 H    16 GLP     0.4000 ****
 49 TO2    12.196000   11.587000  106.066000 T    17 GLP     0.6000 ****
 50 TO1    13.331000   12.666000  115.942000 T    17 GLP    -0.6000 ****
 51 HO1    14.467000   13.745000  125.819000 H    17 GLP     0.4000 ****
 52 TO2     6.207000   16.172000  105.985000 T    18 GLP     0.6000 ****
 53 TO1     6.785000   17.677000  115.855000 T    18 GLP    -0.6000 ****
 54 HO1     7.363000   19.183000  125.724000 H    18 GLP     0.4000 ****
 55 TO2    -1.161000   17.769000  105.905000 T    19 GLP     0.6000 ****
 56 TO1    -1.269000   19.423000  115.767000 T    19 GLP    -0.6000 ****
 57 HO1    -1.377000   21.078000  125.628000 H    19 GLP     0.4000 ****
 58 TO2    -8.524000   16.169000  105.825000 T    20 GLP     0.6000 ****
 59 TO1    -9.318000   17.674000  115.679000 T    20 GLP    -0.6000 ****
 60 HO1   -10.112000   19.180000  125.533000 H    20 GLP     0.4000 ****
 61 TO2   -14.611000   11.731000  105.744000 T    21 GLP     0.6000 ****
 62 TO1   -15.971000   12.823000  115.591000 T    21 GLP    -0.6000 ****
 63 HO1   -17.332000   13.916000  125.438000 H    21 GLP     0.4000 ****
 64 TO2   -18.452000    5.254000  105.664000 T    22 GLP     0.6000 ****
 65 TO1   -20.170000    5.744000  115.503000 T    22 GLP    -0.6000 ****
 66 HO1   -21.888000    6.233000  125.342000 H    22 GLP     0.4000 ****
 67 TO2   -19.499000   -2.200000  105.584000 T    23 GLP     0.6000 ****
 68 TO1   -21.315000   -2.405000  115.415000 T    23 GLP    -0.6000 ****
 69 HO1   -23.130000   -2.610000  125.247000 H    23 GLP     0.4000 ****
 70 TO2   -17.658000   -9.497000  105.503000 T    24 GLP     0.6000 ****
 71 TO1   -19.303000  -10.381000  115.328000 T    24 GLP    -0.6000 ****
 72 HO1   -20.947000  -11.265000  125.152000 H    24 GLP     0.4000 ****
 73 TO2   -13.255000  -15.597000  105.423000 T    25 GLP     0.6000 ****
 74 TO1   -14.489000  -17.049000  115.240000 T    25 GLP    -0.6000 ****
 75 HO1   -15.724000  -18.501000  125.056000 H    25 GLP     0.4000 ****
 76 TO2    -6.944000  -19.689000  105.343000 T    26 GLP     0.6000 ****
 77 TO1    -7.591000  -21.523000  115.152000 T    26 GLP    -0.6000 ****
 78 HO1    -8.238000  -23.356000  124.961000 H    26 GLP     0.4000 ****
 79 TO2     0.406000  -21.276000  105.262000 T    27 GLP     0.6000 ****
 80 TO1     0.444000  -23.257000  115.064000 T    27 GLP    -0.6000 ****
 81 HO1     0.482000  -25.238000  124.866000 H    27 GLP     0.4000 ****
 82 TO2     7.847000  -20.203000  105.182000 T    28 GLP     0.6000 ****
 83 TO1     8.578000  -22.084000  114.976000 T    28 GLP    -0.6000 ****
 84 HO1     9.309000  -23.965000  124.770000 H    28 GLP     0.4000 ****
 85 TO2    14.471000  -16.649000  105.102000 T    29 GLP     0.6000 ****
 86 TO1    15.819000  -18.200000  114.888000 T    29 GLP    -0.6000 ****
 87 HO1    17.166000  -19.750000  124.675000 H    29 GLP     0.4000 ****
 88 TO2    19.514000  -11.077000  105.021000 T    30 GLP     0.6000 ****
 89 TO1    21.331000  -12.109000  114.801000 T    30 GLP    -0.6000 ****
 90 HO1    23.148000  -13.140000  124.580000 H    30 GLP     0.4000 ****
 91 TO2    22.431000   -4.152000  104.941000 T    31 GLP     0.6000 ****
 92 TO1    24.519000   -4.539000  114.713000 T    31 GLP    -0.6000 ****
 93 HO1    26.608000   -4.926000  124.484000 H    31 GLP     0.4000 ****
 94 TO2    22.936000    3.344000  104.861000 T    32 GLP     0.6000 ****
 95 TO1    25.072000    3.655000  114.625000 T    32 GLP    -0.6000 ****
 96 HO1    27.207000    3.966000  124.389000 H    32 GLP     0.4000 ****
 97 TO2    21.014000   10.605000  104.780000 T    33 GLP     0.6000 ****
 98 TO1    22.971000   11.593000  114.537000 T    33 GLP    -0.6000 ****
 99 HO1    24.928000   12.581000  124.294000 H    33 GLP     0.4000 ****
100 TO2    16.901000   16.890000  104.700000 T    34 GLP     0.6000 ****
101 TO1    18.475000   18.462000  114.449000 T    34 GLP    -0.6000 ****
102 HO1    20.049000   20.035000  124.199000 H    34 GLP     0.4000 ****
103 TO2    11.039000   21.584000  104.619000 T    35 GLP     0.6000 ****
104 TO1    12.067000   23.594000  114.361000 T    35 GLP    -0.6000 ****
105 HO1    13.095000   25.604000  124.103000 H    35 GLP     0.4000 ****
106 TO2     4.022000   24.256000  104.539000 T    36 GLP     0.6000 ****
107 TO1     4.397000   26.515000  114.274000 T    36 GLP    -0.6000 ****
108 HO1     4.771000   28.773000  124.008000 H    36 GLP     0.4000 ****
109 TO2    -3.473000   24.683000  104.459000 T    37 GLP     0.6000 ****
110 TO1    -3.797000   26.982000  114.186000 T    37 GLP    -0.6000 ****
111 HO1    -4.120000   29.280000  123.913000 H    37 GLP     0.4000 ****
112 TO2   -10.755000   22.857000  104.378000 T    38 GLP     0.6000 ****
113 TO1   -11.756000   24.985000  114.098000 T    38 GLP    -0.6000 ****
114 HO1   -12.758000   27.114000  123.817000 H    38 GLP     0.4000 ****
115 TO2   -17.176000   18.970000  104.298000 T    39 GLP     0.6000 ****
116 TO1   -18.776000   20.736000  114.010000 T    39 GLP    -0.6000 ****
117 HO1   -20.375000   22.503000  123.722000 H    39 GLP     0.4000 ****
118 TO2   -22.191000   13.386000  104.218000 T    40 GLP     0.6000 ****
119 TO1   -24.258000   14.632000  113.922000 T    40 GLP    -0.6000 ****
120 HO1   -26.324000   15.879000  123.627000 H    40 GLP     0.4000 ****
121 TO2   -25.394000    6.599000  104.137000 T    41 GLP     0.6000 ****
122 TO1   -27.758000    7.213000  113.834000 T    41 GLP    -0.6000 ****
123 HO1   -30.123000    7.827000  123.531000 H    41 GLP     0.4000 ****
124 TO2   -26.541000   -0.817000  104.057000 T    42 GLP     0.6000 ****
125 TO1   -29.013000   -0.893000  113.746000 T    42 GLP    -0.6000 ****
126 HO1   -31.484000   -0.969000  123.436000 H    42 GLP     0.4000 ****
127 TO2   -25.566000   -8.257000  103.977000 T    43 GLP     0.6000 ****
128 TO1   -27.947000   -9.026000  113.659000 T    43 GLP    -0.6000 ****
129 HO1   -30.328000   -9.795000  123.341000 H    43 GLP     0.4000 ****
130 TO2   -22.571000  -15.136000  103.896000 T    44 GLP     0.6000 ****
131 TO1   -24.672000  -16.545000  113.571000 T    44 GLP    -0.6000 ****
132 HO1   -26.774000  -17.955000  123.245000 H    44 GLP     0.4000 ****
133 TO2   -17.807000  -20.932000  103.816000 T    45 GLP     0.6000 ****
134 TO1   -19.465000  -22.881000  113.483000 T    45 GLP    -0.6000 ****
135 HO1   -21.123000  -24.830000  123.150000 H    45 GLP     0.4000 ****
136 TO2   -11.653000  -25.221000  103.736000 T    46 GLP     0.6000 ****
137 TO1   -12.738000  -27.570000  113.395000 T    46 GLP    -0.6000 ****
138 HO1   -13.823000  -29.918000  123.055000 H    46 GLP     0.4000 ****
139 TO2    -4.575000  -27.706000  103.655000 T    47 GLP     0.6000 ****
140 TO1    -5.001000  -30.286000  113.307000 T    47 GLP    -0.6000 ****
141 HO1    -5.427000  -32.866000  122.959000 H    47 GLP     0.4000 ****
142 TO2     2.907000  -28.227000  103.575000 T    48 GLP     0.6000 ****
143 TO1     3.178000  -30.855000  113.219000 T    48 GLP    -0.6000 ****
144 HO1     3.449000  -33.484000  122.864000 H    48 GLP     0.4000 ****
145 TO2    10.264000  -26.767000  103.495000 T    49 GLP     0.6000 ****
146 TO1    11.220000  -29.260000  113.132000 T    49 GLP    -0.6000 ****
147 HO1    12.176000  -31.753000  122.769000 H    49 GLP     0.4000 ****
148 TO2    16.989000  -23.449000  103.414000 T    50 GLP     0.6000 ****
149 TO1    18.571000  -25.632000  113.044000 T    50 GLP    -0.6000 ****
150 HO1    20.153000  -27.816000  122.673000 H    50 GLP     0.4000 ****
151 TO2    22.635000  -18.513000  103.334000 T    51 GLP     0.6000 ****
152 TO1    24.743000  -20.237000  112.956000 T    51 GLP    -0.6000 ****
153 HO1    26.851000  -21.961000  122.578000 H    51 GLP     0.4000 ****
154 TO2    26.839000  -12.303000  103.253000 T    52 GLP     0.6000 ****
155 TO1    29.338000  -13.449000  112.868000 T    52 GLP    -0.6000 ****
156 HO1    31.837000  -14.595000  122.483000 H    52 GLP     0.4000 ****
157 TO2    29.341000   -5.235000  103.173000 T    53 GLP     0.6000 ****
158 TO1    32.073000   -5.722000  112.780000 T    53 GLP    -0.6000 ****
159 HO1    34.805000   -6.210000  122.387000 H    53 GLP     0.4000 ****
160 TO2    29.998000    2.234000  103.093000 T    54 GLP     0.6000 ****
161 TO1    32.791000    2.442000  112.692000 T    54 GLP    -0.6000 ****
162 HO1    35.584000    2.650000  122.292000 H    54 GLP     0.4000 ****
163 TO2    28.786000    9.633000  103.012000 T    55 GLP     0.6000 ****
164 TO1    31.466000   10.530000  112.605000 T    55 GLP    -0.6000 ****
165 HO1    34.146000   11.427000  122.197000 H    55 GLP     0.4000 ****
166 TO2    25.796000   16.508000  102.932000 T    56 GLP     0.6000 ****
167 TO1    28.198000   18.046000  112.517000 T    56 GLP    -0.6000 ****
168 HO1    30.600000   19.583000  122.102000 H    56 GLP     0.4000 ****
169 TO2    21.225000   22.450000  102.852000 T    57 GLP     0.6000 ****
170 TO1    23.201000   24.541000  112.429000 T    57 GLP    -0.6000 ****
171 HO1    25.177000   26.631000  122.006000 H    57 GLP     0.4000 ****
172 TO2    15.356000   27.115000  102.771000 T    58 GLP     0.6000 ****
173 TO1    16.786000   29.639000  112.341000 T    58 GLP    -0.6000 ****
174 HO1    18.216000   32.164000  121.911000 H    58 GLP     0.4000 ****
175 TO2     8.544000   30.241000  102.691000 T    59 GLP     0.6000 ****
176 TO1     9.339000   33.057000  112.253000 T    59 GLP    -0.6000 ****
177 HO1    10.135000   35.873000  121.816000 H    59 GLP     0.4000 ****
178 TO2     1.184000   31.664000  102.611000 T    60 GLP     0.6000 ****
179 TO1     1.294000   34.613000  112.165000 T    60 GLP    -0.6000 ****
180 HO1     1.405000   37.561000  121.720000 H    60 GLP     0.4000 ****
181 TO2    -6.303000   31.317000  102.530000 T    61 GLP     0.6000 ****
182 TO1    -6.890000   34.233000  112.078000 T    61 GLP    -0.6000 ****
183 HO1    -7.477000   37.150000  121.625000 H    61 GLP     0.4000 ****
184 TO2   -13.503000   29.234000  102.450000 T    62 GLP     0.6000 ****
185 TO1   -14.760000   31.957000  111.990000 T    62 GLP    -0.6000 ****
186 HO1   -16.018000   34.679000  121.530000 H    62 GLP     0.4000 ****
187 TO2   -20.025000   25.542000  102.370000 T    63 GLP     0.6000 ****
188 TO1   -21.890000   27.921000  111.902000 T    63 GLP    -0.6000 ****
189 HO1   -23.755000   30.299000  121.434000 H    63 GLP     0.4000 ****
190 TO2   -25.526000   20.452000  102.289000 T    64 GLP     0.6000 ****
191 TO1   -27.903000   22.357000  111.814000 T    64 GLP    -0.6000 ****
192 HO1   -30.280000   24.261000  121.339000 H    64 GLP     0.4000 ****
193 TO2   -29.723000   14.243000  102.209000 T    65 GLP     0.6000 ****
194 TO1   -32.490000   15.570000  111.726000 T    65 GLP    -0.6000 ****
195 HO1   -35.258000   16.896000  121.244000 H    65 GLP     0.4000 ****
196 TO2   -32.407000    7.247000  102.129000 T    66 GLP     0.6000 ****
197 TO1   -35.425000    7.921000  111.638000 T    66 GLP    -0.6000 ****
198 HO1   -38.442000    8.596000  121.148000 H    66 GLP     0.4000 ****
199 TO2   -33.453000   -0.174000  102.048000 T    67 GLP     0.6000 ****
200 TO1   -36.568000   -0.190000  111.551000 T    67 GLP    -0.6000 ****
201 HO1   -39.683000   -0.206000  121.053000 H    67 GLP     0.4000 ****
202 TO2   -32.820000   -7.640000  101.968000 T    68 GLP     0.6000 ****
203 TO1   -35.876000   -8.352000  111.463000 T    68 GLP    -0.6000 ****
204 HO1   -38.932000   -9.063000  120.958000 H    68 GLP     0.4000 ****
205 TO2   -30.552000  -14.782000  101.887000 T    69 GLP     0.6000 ****
206 TO1   -33.397000  -16.158000  111.375000 T    69 GLP    -0.6000 ****
207 HO1   -36.241000  -17.535000  120.862000 H    69 GLP     0.4000 ****
208 TO2   -26.771000  -21.251000  101.807000 T    70 GLP     0.6000 ****
209 TO1   -29.264000  -23.230000  111.287000 T    70 GLP    -0.6000 ****
210 HO1   -31.756000  -25.208000  120.767000 H    70 GLP     0.4000 ****
211 TO2   -21.671000  -26.740000  101.727000 T    71 GLP     0.6000 ****
212 TO1   -23.689000  -29.230000  111.199000 T    71 GLP    -0.6000 ****
213 HO1   -25.706000  -31.720000  120.672000 H    71 GLP     0.4000 ****
214 TO2   -15.503000  -30.994000  101.646000 T    72 GLP     0.6000 ****
215 TO1   -16.947000  -33.880000  111.111000 T    72 GLP    -0.6000 ****
216 HO1   -18.390000  -36.766000  120.576000 H    72 GLP     0.4000 ****
217 TO2    -8.565000  -33.822000  101.566000 T    73 GLP     0.6000 ****
218 TO1    -9.363000  -36.972000  111.024000 T    73 GLP    -0.6000 ****
219 HO1   -10.160000  -40.121000  120.481000 H    73 GLP     0.4000 ****
220 TO2    -1.184000  -35.103000  101.486000 T    74 GLP     0.6000 ****
221 TO1    -1.294000  -38.372000  110.936000 T    74 GLP    -0.6000 ****
222 HO1    -1.404000  -41.640000  120.386000 H    74 GLP     0.4000 ****
223 TO2     6.302000  -34.788000  101.405000 T    75 GLP     0.6000 ****
224 TO1     6.888000  -38.027000  110.848000 T    75 GLP    -0.6000 ****
225 HO1     7.475000  -41.267000  120.291000 H    75 GLP     0.4000 ****
226 TO2    13.552000  -32.902000  101.325000 T    76 GLP     0.6000 ****
227 TO1    14.814000  -35.966000  110.760000 T    76 GLP    -0.6000 ****
228 HO1    16.076000  -39.030000  120.195000 H    76 GLP     0.4000 ****
229 TO2    20.246000  -29.539000  101.245000 T    77 GLP     0.6000 ****
230 TO1    22.131000  -32.290000  110.672000 T    77 GLP    -0.6000 ****
231 HO1    24.017000  -35.041000  120.100000 H    77 GLP     0.4000 ****
232 TO2    26.094000  -24.857000  101.164000 T    78 GLP     0.6000 ****
233 TO1    28.523000  -27.172000  110.584000 T    78 GLP    -0.6000 ****
234 HO1    30.953000  -29.486000  120.005000 H    78 GLP     0.4000 ****
235 TO2    30.846000  -19.066000  101.084000 T    79 GLP     0.6000 ****
236 TO1    33.718000  -20.842000  110.497000 T    79 GLP    -0.6000 ****
237 HO1    36.591000  -22.617000  119.909000 H    79 GLP     0.4000 ****
238 TO2    34.306000  -12.423000  101.004000 T    80 GLP     0.6000 ****
239 TO1    37.501000  -13.579000  110.409000 T    80 GLP    -0.6000 ****
240 HO1    40.695000  -14.736000  119.814000 H    80 GLP     0.4000 ****
241 TO2    36.336000   -5.212000  100.923000 T    81 GLP     0.6000 ****
242 TO1    39.719000   -5.698000  110.321000 T    81 GLP    -0.6000 ****
243 HO1    43.103000   -6.183000  119.719000 H    81 GLP     0.4000 ****
244 TO2    36.859000    2.260000  100.843000 T    82 GLP     0.6000 ****
245 TO1    40.291000    2.470000  110.233000 T    82 GLP    -0.6000 ****
246 HO1    43.723000    2.681000  119.623000 H    82 GLP     0.4000 ****
247 TO2    35.862000    9.684000  100.763000 T    83 GLP     0.6000 ****
248 TO1    39.202000   10.585000  110.145000 T    83 GLP    -0.6000 ****
249 HO1    42.541000   11.487000  119.528000 H    83 GLP     0.4000 ****
250 TO2    33.396000   16.756000  100.682000 T    84 GLP     0.6000 ****
251 TO1    36.506000   18.316000  110.057000 T    84 GLP    -0.6000 ****
252 HO1    39.616000   19.877000  119.433000 H    84 GLP     0.4000 ****
253 TO2    29.568000   23.194000  100.602000 T    85 GLP     0.6000 ****
254 TO1    32.321000   25.354000  109.970000 T    85 GLP    -0.6000 ****
255 HO1    35.075000   27.513000  119.337000 H    85 GLP     0.4000 ****
256 TO2    24.539000   28.744000  100.521000 T    86 GLP     0.6000 ****
257 TO1    26.824000   31.421000  109.882000 T    86 GLP    -0.6000 ****
258 HO1    29.109000   34.097000  119.242000 H    86 GLP     0.4000 ****
259 TO2    18.514000   33.193000  100.441000 T    87 GLP     0.6000 ****
260 TO1    20.238000   36.284000  109.794000 T    87 GLP    -0.6000 ****
261 HO1    21.962000   39.375000  119.147000 H    87 GLP     0.4000 ****
262 TO2    11.733000   36.373000  100.361000 T    88 GLP     0.6000 ****
263 TO1    12.826000   39.760000  109.706000 T    88 GLP    -0.6000 ****
264 HO1    13.918000   43.147000  119.051000 H    88 GLP     0.4000 ****
265 TO2     4.462000   38.169000  100.280000 T    89 GLP     0.6000 ****
266 TO1     4.878000   41.723000  109.618000 T    89 GLP    -0.6000 ****
267 HO1     5.293000   45.278000  118.956000 H    89 GLP     0.4000 ****
268 TO2    -3.019000   38.520000  100.200000 T    90 GLP     0.6000 ****
269 TO1    -3.300000   42.107000  109.530000 T    90 GLP    -0.6000 ****
270 HO1    -3.581000   45.694000  118.861000 H    90 GLP     0.4000 ****
271 TO2   -10.427000   37.421000  100.120000 T    91 GLP     0.6000 ****
272 TO1   -11.397000   40.905000  109.443000 T    91 GLP    -0.6000 ****
273 HO1   -12.368000   44.390000  118.765000 H    91 GLP     0.4000 ****
274 TO2   -17.485000   34.919000  100.039000 T    92 GLP     0.6000 ****
275 TO1   -19.114000   38.171000  109.355000 T    92 GLP    -0.6000 ****
276 HO1   -20.742000   41.422000  118.670000 H    92 GLP     0.4000 ****
277 TO2   -23.937000   31.116000   99.959000 T    93 GLP     0.6000 ****
278 TO1   -26.165000   34.013000  109.267000 T    93 GLP    -0.6000 ****
279 HO1   -28.394000   36.911000  118.575000 H    93 GLP     0.4000 ****
280 TO2   -29.548000   26.157000   99.879000 T    94 GLP     0.6000 ****
281 TO1   -32.299000   28.592000  109.179000 T    94 GLP    -0.6000 ****
282 HO1   -35.050000   31.028000  118.479000 H    94 GLP     0.4000 ****
283 TO2   -34.120000   20.226000   99.798000 T    95 GLP     0.6000 ****
284 TO1   -37.297000   22.109000  109.091000 T    95 GLP    -0.6000 ****
285 HO1   -40.474000   23.993000  118.384000 H    95 GLP     0.4000 ****
286 TO2   -37.496000   13.542000   99.718000 T    96 GLP     0.6000 ****
287 TO1   -40.987000   14.803000  109.003000 T    96 GLP    -0.6000 ****
288 HO1   -44.479000   16.064000  118.289000 H    96 GLP     0.4000 ****
289 TO2   -39.561000    6.344000   99.638000 T    97 GLP     0.6000 ****
290 TO1   -43.245000    6.935000  108.916000 T    97 GLP    -0.6000 ****
291 HO1   -46.929000    7.525000  118.194000 H    97 GLP     0.4000 ****
292 TO2   -40.250000   -1.112000   99.557000 T    98 GLP     0.6000 ****
293 TO1   -43.998000   -1.216000  108.828000 T    98 GLP    -0.6000 ****
294 HO1   -47.746000   -1.320000  118.098000 H    98 GLP     0.4000 ****
295 TO2   -39.546000   -8.567000   99.477000 T    99 GLP     0.6000 ****
296 TO1   -43.229000   -9.365000  108.740000 T    99 GLP    -0.6000 ****
297 HO1   -46.911000  -10.163000  118.003000 H    99 GLP     0.4000 ****
298 TO2   -37.480000  -15.765000   99.397000 T    100 GLP     0.6000 ****
299 TO1   -40.970000  -17.233000  108.652000 T    100 GLP    -0.6000 ****
300 HO1   -44.460000  -18.700000  117.908000 H    100 GLP     0.4000 ****
301 TO2   -34.129000  -22.460000   99.316000 T    101 GLP     0.6000 ****
302 TO1   -37.307000  -24.552000  108.564000 T    101 GLP    -0.6000 ****
303 HO1   -40.485000  -26.643000  117.812000 H    101 GLP     0.4000 ****
304 TO2   -29.612000  -28.432000   99.236000 T    102 GLP     0.6000 ****
305 TO1   -32.369000  -31.079000  108.476000 T    102 GLP    -0.6000 ****
306 HO1   -35.126000  -33.727000  117.717000 H    102 GLP     0.4000 ****
307 TO2   -24.084000  -33.483000   99.155000 T    103 GLP     0.6000 ****
308 TO1   -26.327000  -36.601000  108.389000 T    103 GLP    -0.6000 ****
309 HO1   -28.570000  -39.719000  117.622000 H    103 GLP     0.4000 ****
310 TO2   -17.735000  -37.451000   99.075000 T    104 GLP     0.6000 ****
311 TO1   -19.386000  -40.938000  108.301000 T    104 GLP    -0.6000 ****
312 HO1   -21.037000  -44.426000  117.526000 H    104 GLP     0.4000 ****
313 TO2   -10.775000  -40.211000   98.995000 T    105 GLP     0.6000 ****
314 TO1   -11.778000  -43.955000  108.213000 T    105 GLP    -0.6000 ****
315 HO1   -12.781000  -47.699000  117.431000 H    105 GLP     0.4000 ****
316 TO2    -3.433000  -41.679000   98.914000 T    106 GLP     0.6000 ****
317 TO1    -3.752000  -45.560000  108.125000 T    106 GLP    -0.6000 ****
318 HO1    -4.072000  -49.441000  117.336000 H    106 GLP     0.4000 ****
319 TO2     4.053000  -41.813000   98.834000 T    107 GLP     0.6000 ****
320 TO1     4.431000  -45.707000  108.037000 T    107 GLP    -0.6000 ****
321 HO1     4.808000  -49.601000  117.240000 H    107 GLP     0.4000 ****
322 TO2    11.444000  -40.617000   98.754000 T    108 GLP     0.6000 ****
323 TO1    12.510000  -44.399000  107.949000 T    108 GLP    -0.6000 ****
324 HO1    13.575000  -48.181000  117.145000 H    108 GLP     0.4000 ****
325 TO2    18.507000  -38.132000   98.673000 T    109 GLP     0.6000 ****
326 TO1    20.230000  -41.683000  107.862000 T    109 GLP    -0.6000 ****
327 HO1    21.953000  -45.233000  117.050000 H    109 GLP     0.4000 ****
328 TO2    25.022000  -34.443000   98.593000 T    110 GLP     0.6000 ****
329 TO1    27.352000  -37.650000  107.774000 T    110 GLP    -0.6000 ****
330 HO1    29.681000  -40.857000  116.954000 H    110 GLP     0.4000 ****
331 TO2    30.789000  -29.669000   98.513000 T    111 GLP     0.6000 ****
332 TO1    33.656000  -32.432000  107.686000 T    111 GLP    -0.6000 ****
333 HO1    36.523000  -35.195000  116.859000 H    111 GLP     0.4000 ****
334 TO2    35.635000  -23.962000   98.432000 T    112 GLP     0.6000 ****
335 TO1    38.953000  -26.194000  107.598000 T    112 GLP    -0.6000 ****
336 HO1    42.271000  -28.425000  116.764000 H    112 GLP     0.4000 ****
337 TO2    39.416000  -17.501000   98.352000 T    113 GLP     0.6000 ****
338 TO1    43.086000  -19.130000  107.510000 T    113 GLP    -0.6000 ****
339 HO1    46.756000  -20.760000  116.668000 H    113 GLP     0.4000 ****
340 TO2    42.021000  -10.482000   98.272000 T    114 GLP     0.6000 ****
341 TO1    45.934000  -11.458000  107.422000 T    114 GLP    -0.6000 ****
342 HO1    49.847000  -12.434000  116.573000 H    114 GLP     0.4000 ****
343 TO2    43.379000   -3.120000   98.191000 T    115 GLP     0.6000 ****
344 TO1    47.418000   -3.410000  107.335000 T    115 GLP    -0.6000 ****
345 HO1    51.457000   -3.701000  116.478000 H    115 GLP     0.4000 ****
346 TO2    43.453000    4.366000   98.111000 T    116 GLP     0.6000 ****
347 TO1    47.499000    4.773000  107.247000 T    116 GLP    -0.6000 ****
348 HO1    51.545000    5.179000  116.382000 H    116 GLP     0.4000 ****
349 TO2    42.247000   11.754000   98.031000 T    117 GLP     0.6000 ****
350 TO1    46.181000   12.849000  107.159000 T    117 GLP    -0.6000 ****
351 HO1    50.115000   13.944000  116.287000 H    117 GLP     0.4000 ****
352 TO2    39.802000   18.830000   97.950000 T    118 GLP     0.6000 ****
353 TO1    43.508000   20.583000  107.071000 T    118 GLP    -0.6000 ****
354 HO1    47.214000   22.337000  116.192000 H    118 GLP     0.4000 ****
355 TO2    36.192000   25.388000   97.870000 T    119 GLP     0.6000 ****
356 TO1    39.562000   27.753000  106.983000 T    119 GLP    -0.6000 ****
357 HO1    42.933000   30.117000  116.097000 H    119 GLP     0.4000 ****
358 TO2    31.528000   31.244000   97.789000 T    120 GLP     0.6000 ****
359 TO1    34.464000   34.153000  106.895000 T    120 GLP    -0.6000 ****
360 HO1    37.400000   37.062000  116.001000 H    120 GLP     0.4000 ****
361 TO2    25.946000   36.231000   97.709000 T    121 GLP     0.6000 ****
362 TO1    28.362000   39.605000  106.808000 T    121 GLP    -0.6000 ****
363 HO1    30.778000   42.979000  115.906000 H    121 GLP     0.4000 ****
364 TO2    19.607000   40.214000   97.629000 T    122 GLP     0.6000 ****
365 TO1    21.433000   43.958000  106.720000 T    122 GLP    -0.6000 ****
366 HO1    23.259000   47.703000  115.811000 H    122 GLP     0.4000 ****
367 TO2    12.693000   43.083000   97.548000 T    123 GLP     0.6000 ****
368 TO1    13.875000   47.095000  106.632000 T    123 GLP    -0.6000 ****
369 HO1    15.057000   51.107000  115.715000 H    123 GLP     0.4000 ****
370 TO2     5.399000   44.764000   97.468000 T    124 GLP     0.6000 ****
371 TO1     5.901000   48.932000  106.544000 T    124 GLP    -0.6000 ****
372 HO1     6.404000   53.100000  115.620000 H    124 GLP     0.4000 ****
373 TO2    -2.073000   45.214000   97.388000 T    125 GLP     0.6000 ****
374 TO1    -2.266000   49.424000  106.456000 T    125 GLP    -0.6000 ****
375 HO1    -2.459000   53.634000  115.525000 H    125 GLP     0.4000 ****
376 TO2    -9.517000   44.426000   97.307000 T    126 GLP     0.6000 ****
377 TO1   -10.403000   48.563000  106.368000 T    126 GLP    -0.6000 ****
378 HO1   -11.290000   52.700000  115.429000 H    126 GLP     0.4000 ****
379 TO2   -16.731000   42.426000   97.227000 T    127 GLP     0.6000 ****
380 TO1   -18.288000   46.377000  106.281000 T    127 GLP    -0.6000 ****
381 HO1   -19.846000   50.327000  115.334000 H    127 GLP     0.4000 ****
382 TO2   -23.519000   39.273000   97.147000 T    128 GLP     0.6000 ****
383 TO1   -25.709000   42.930000  106.193000 T    128 GLP    -0.6000 ****
384 HO1   -27.899000   46.586000  115.239000 H    128 GLP     0.4000 ****
385 TO2   -29.703000   35.055000   97.066000 T    129 GLP     0.6000 ****
386 TO1   -32.469000   38.319000  106.105000 T    129 GLP    -0.6000 ****
387 HO1   -35.235000   41.583000  115.143000 H    129 GLP     0.4000 ****
388 TO2   -35.119000   29.888000   96.986000 T    130 GLP     0.6000 ****
389 TO1   -38.390000   32.671000  106.017000 T    130 GLP    -0.6000 ****
390 HO1   -41.660000   35.455000  115.048000 H    130 GLP     0.4000 ****
391 TO2   -39.628000   23.914000   96.906000 T    131 GLP     0.6000 ****
392 TO1   -43.318000   26.140000  105.929000 T    131 GLP    -0.6000 ****
393 HO1   -47.009000   28.367000  114.953000 H    131 GLP     0.4000 ****
394 TO2   -43.115000   17.290000   96.825000 T    132 GLP     0.6000 ****
395 TO1   -47.130000   18.900000  105.841000 T    132 GLP    -0.6000 ****
396 HO1   -51.144000   20.510000  114.857000 H    132 GLP     0.4000 ****
397 TO2   -45.492000   10.193000   96.745000 T    133 GLP     0.6000 ****
398 TO1   -49.728000   11.142000  105.753000 T    133 GLP    -0.6000 ****
399 HO1   -53.964000   12.091000  114.762000 H    133 GLP     0.4000 ****
400 TO2   -46.702000    2.806000   96.665000 T    134 GLP     0.6000 ****
401 TO1   -51.051000    3.067000  105.666000 T    134 GLP    -0.6000 ****
402 HO1   -55.399000    3.329000  114.667000 H    134 GLP     0.4000 ****
403 TO2   -46.718000   -4.679000   96.584000 T    135 GLP     0.6000 ****
404 TO1   -51.068000   -5.114000  105.578000 T    135 GLP    -0.6000 ****
405 HO1   -55.418000   -5.550000  114.571000 H    135 GLP     0.4000 ****
406 TO2   -45.544000  -12.071000   96.504000 T    136 GLP     0.6000 ****
407 TO1   -49.785000  -13.195000  105.490000 T    136 GLP    -0.6000 ****
408 HO1   -54.026000  -14.319000  114.476000 H    136 GLP     0.4000 ****
409 TO2   -43.214000  -19.184000   96.423000 T    137 GLP     0.6000 ****
410 TO1   -47.238000  -20.970000  105.402000 T    137 GLP    -0.6000 ****
411 HO1   -51.262000  -22.757000  114.381000 H    137 GLP     0.4000 ****
412 TO2   -39.790000  -25.840000   96.343000 T    138 GLP     0.6000 ****
413 TO1   -43.496000  -28.246000  105.314000 T    138 GLP    -0.6000 ****
414 HO1   -47.201000  -30.652000  114.286000 H    138 GLP     0.4000 ****
415 TO2   -35.362000  -31.874000   96.263000 T    139 GLP     0.6000 ****
416 TO1   -38.655000  -34.842000  105.226000 T    139 GLP    -0.6000 ****
417 HO1   -41.948000  -37.810000  114.190000 H    139 GLP     0.4000 ****
418 TO2   -30.043000  -37.139000   96.182000 T    140 GLP     0.6000 ****
419 TO1   -32.841000  -40.597000  105.139000 T    140 GLP    -0.6000 ****
420 HO1   -35.638000  -44.056000  114.095000 H    140 GLP     0.4000 ****
421 TO2   -23.966000  -41.509000   96.102000 T    141 GLP     0.6000 ****
422 TO1   -26.198000  -45.374000  105.051000 T    141 GLP    -0.6000 ****
423 HO1   -28.430000  -49.239000  114.000000 H    141 GLP     0.4000 ****
424 TO2   -17.284000  -44.878000   96.022000 T    142 GLP     0.6000 ****
425 TO1   -18.893000  -49.057000  104.963000 T    142 GLP    -0.6000 ****
426 HO1   -20.502000  -53.236000  113.904000 H    142 GLP     0.4000 ****
427 TO2   -10.159000  -47.170000   95.941000 T    143 GLP     0.6000 ****
428 TO1   -11.105000  -51.563000  104.875000 T    143 GLP    -0.6000 ****
429 HO1   -12.051000  -55.955000  113.809000 H    143 GLP     0.4000 ****
430 TO2    -2.765000  -48.332000   95.861000 T    144 GLP     0.6000 ****
431 TO1    -3.022000  -52.833000  104.787000 T    144 GLP    -0.6000 ****
432 HO1    -3.280000  -57.333000  113.714000 H    144 GLP     0.4000 ****
433 TO2     4.719000  -48.340000   95.781000 T    145 GLP     0.6000 ****
434 TO1     5.159000  -52.841000  104.699000 T    145 GLP    -0.6000 ****
435 HO1     5.598000  -57.343000  113.618000 H    145 GLP     0.4000 ****
436 TO2    12.116000  -47.198000   95.700000 T    146 GLP     0.6000 ****
437 TO1    13.244000  -51.593000  104.612000 T    146 GLP    -0.6000 ****
438 HO1    14.372000  -55.988000  113.523000 H    146 GLP     0.4000 ****
439 TO2    19.250000  -44.936000   95.620000 T    147 GLP     0.6000 ****
440 TO1    21.043000  -49.120000  104.524000 T    147 GLP    -0.6000 ****
441 HO1    22.835000  -53.304000  113.428000 H    147 GLP     0.4000 ****
442 TO2    25.955000  -41.611000   95.540000 T    148 GLP     0.6000 ****
443 TO1    28.372000  -45.486000  104.436000 T    148 GLP    -0.6000 ****
444 HO1    30.789000  -49.361000  113.332000 H    148 GLP     0.4000 ****
445 TO2    32.076000  -37.305000   95.459000 T    149 GLP     0.6000 ****
446 TO1    35.063000  -40.778000  104.348000 T    149 GLP    -0.6000 ****
447 HO1    38.050000  -44.252000  113.237000 H    149 GLP     0.4000 ****
448 TO2    37.473000  -32.119000   95.379000 T    150 GLP     0.6000 ****
449 TO1    40.962000  -35.110000  104.260000 T    150 GLP    -0.6000 ****
450 HO1    44.451000  -38.101000  113.142000 H    150 GLP     0.4000 ****
451 TO2    42.023000  -26.177000   95.299000 T    151 GLP     0.6000 ****
452 TO1    45.936000  -28.615000  104.172000 T    151 GLP    -0.6000 ****
453 HO1    49.849000  -31.052000  113.046000 H    151 GLP     0.4000 ****
454 TO2    45.625000  -19.617000   95.218000 T    152 GLP     0.6000 ****
455 TO1    49.873000  -21.444000  104.085000 T    152 GLP    -0.6000 ****
456 HO1    54.122000  -23.271000  112.951000 H    152 GLP     0.4000 ****
457 TO2    48.200000  -12.590000   95.138000 T    153 GLP     0.6000 ****
458 TO1    52.688000  -13.763000  103.997000 T    153 GLP    -0.6000 ****
459 HO1    57.176000  -14.935000  112.856000 H    153 GLP     0.4000 ****
460 TO2    49.693000   -5.257000   95.057000 T    154 GLP     0.6000 ****
461 TO1    54.320000   -5.747000  103.909000 T    154 GLP    -0.6000 ****
462 HO1    58.948000   -6.236000  112.760000 H    154 GLP     0.4000 ****
463 TO2    50.074000    2.217000   94.977000 T    155 GLP     0.6000 ****
464 TO1    54.737000    2.423000  103.821000 T    155 GLP    -0.6000 ****
465 HO1    59.399000    2.630000  112.665000 H    155 GLP     0.4000 ****
466 TO2    49.337000    9.664000   94.897000 T    156 GLP     0.6000 ****
467 TO1    53.931000   10.564000  103.733000 T    156 GLP    -0.6000 ****
468 HO1    58.526000   11.464000  112.570000 H    156 GLP     0.4000 ****
469 TO2    47.503000   16.920000   94.816000 T    157 GLP     0.6000 ****
470 TO1    51.926000   18.495000  103.645000 T    157 GLP    -0.6000 ****
471 HO1    56.350000   20.071000  112.474000 H    157 GLP     0.4000 ****
472 TO2    44.615000   23.824000   94.736000 T    158 GLP     0.6000 ****
473 TO1    48.769000   26.042000  103.558000 T    158 GLP    -0.6000 ****
474 HO1    52.924000   28.260000  112.379000 H    158 GLP     0.4000 ****
475 TO2    40.739000   30.225000   94.656000 T    159 GLP     0.6000 ****
476 TO1    44.533000   33.040000  103.470000 T    159 GLP    -0.6000 ****
477 HO1    48.326000   35.854000  112.284000 H    159 GLP     0.4000 ****
478 TO2    35.964000   35.987000   94.575000 T    160 GLP     0.6000 ****
479 TO1    39.313000   39.338000  103.382000 T    160 GLP    -0.6000 ****
480 HO1    42.661000   42.689000  112.189000 H    160 GLP     0.4000 ****
481 TO2    30.394000   40.986000   94.495000 T    161 GLP     0.6000 ****
482 TO1    33.225000   44.802000  103.294000 T    161 GLP    -0.6000 ****
483 HO1    36.055000   48.619000  112.093000 H    161 GLP     0.4000 ****
484 TO2    24.154000   45.116000   94.415000 T    162 GLP     0.6000 ****
485 TO1    26.403000   49.317000  103.206000 T    162 GLP    -0.6000 ****
486 HO1    28.652000   53.518000  111.998000 H    162 GLP     0.4000 ****
487 TO2    17.378000   48.291000   94.334000 T    163 GLP     0.6000 ****
488 TO1    18.996000   52.788000  103.118000 T    163 GLP    -0.6000 ****
489 HO1    20.614000   57.285000  111.903000 H    163 GLP     0.4000 ****
490 TO2    10.211000   50.447000   94.254000 T    164 GLP     0.6000 ****
491 TO1    11.162000   55.144000  103.031000 T    164 GLP    -0.6000 ****
492 HO1    12.113000   59.842000  111.807000 H    164 GLP     0.4000 ****
493 TO2     2.808000   51.540000   94.174000 T    165 GLP     0.6000 ****
494 TO1     3.070000   56.340000  102.943000 T    165 GLP    -0.6000 ****
495 HO1     3.331000   61.139000  111.712000 H    165 GLP     0.4000 ****
496 TO2    -4.675000   51.552000   94.093000 T    166 GLP     0.6000 ****
497 TO1    -5.110000   56.352000  102.855000 T    166 GLP    -0.6000 ****
498 HO1    -5.545000   61.152000  111.617000 H    166 GLP     0.4000 ****
499 TO2   -12.081000   50.483000   94.013000 T    167 GLP     0.6000 ****
500 TO1   -13.206000   55.184000  102.767000 T    167 GLP    -0.6000 ****
501 HO1   -14.331000   59.885000  111.521000 H    167 GLP     0.4000 ****
502 TO2   -19.257000   48.361000   93.933000 T    168 GLP     0.6000 ****
503 TO1   -21.051000   52.864000  102.679000 T    168 GLP    -0.6000 ****
504 HO1   -22.844000   57.368000  111.426000 H    168 GLP     0.4000 ****
505 TO2   -26.055000   45.232000   93.852000 T    169 GLP     0.6000 ****
506 TO1   -28.481000   49.443000  102.591000 T    169 GLP    -0.6000 ****
507 HO1   -30.907000   53.655000  111.331000 H    169 GLP     0.4000 ****
508 TO2   -32.334000   41.162000   93.772000 T    170 GLP     0.6000 ****
509 TO1   -35.345000   44.995000  102.504000 T    170 GLP    -0.6000 ****
510 HO1   -38.356000   48.828000  111.235000 H    170 GLP     0.4000 ****
511 TO2   -37.969000   36.238000   93.691000 T    171 GLP     0.6000 ****
512 TO1   -41.505000   39.613000  102.416000 T    171 GLP    -0.6000 ****
513 HO1   -45.041000   42.987000  111.140000 H    171 GLP     0.4000 ****
514 TO2   -42.847000   30.563000   93.611000 T    172 GLP     0.6000 ****
515 TO1   -46.836000   33.409000  102.328000 T    172 GLP    -0.6000 ****
516 HO1   -50.826000   36.255000  111.045000 H    172 GLP     0.4000 ****
517 TO2   -46.869000   24.253000   93.531000 T    173 GLP     0.6000 ****
518 TO1   -51.234000   26.512000  102.240000 T    173 GLP    -0.6000 ****
519 HO1   -55.598000   28.770000  110.949000 H    173 GLP     0.4000 ****
520 TO2   -49.959000   17.438000   93.450000 T    174 GLP     0.6000 ****
521 TO1   -54.611000   19.062000  102.152000 T    174 GLP    -0.6000 ****
522 HO1   -59.263000   20.685000  110.854000 H    174 GLP     0.4000 ****
523 TO2   -52.056000   10.255000   93.370000 T    175 GLP     0.6000 ****
524 TO1   -56.903000   11.210000  102.064000 T    175 GLP    -0.6000 ****
525 HO1   -61.751000   12.165000  110.759000 H    175 GLP     0.4000 ****
526 TO2   -53.121000    2.848000   93.290000 T    176 GLP     0.6000 ****
527 TO1   -58.068000    3.113000  101.977000 T    176 GLP    -0.6000 ****
528 HO1   -63.014000    3.379000  110.663000 H    176 GLP     0.4000 ****
529 TO2   -53.137000   -4.635000   93.209000 T    177 GLP     0.6000 ****
530 TO1   -58.085000   -5.066000  101.889000 T    177 GLP    -0.6000 ****
531 HO1   -63.032000   -5.498000  110.568000 H    177 GLP     0.4000 ****
532 TO2   -52.104000  -12.046000   93.129000 T    178 GLP     0.6000 ****
533 TO1   -56.956000  -13.168000  101.801000 T    178 GLP    -0.6000 ****
534 HO1   -61.808000  -14.289000  110.473000 H    178 GLP     0.4000 ****
535 TO2   -50.047000  -19.240000   93.049000 T    179 GLP     0.6000 ****
536 TO1   -54.707000  -21.032000  101.713000 T    179 GLP    -0.6000 ****
537 HO1   -59.368000  -22.824000  110.378000 H    179 GLP     0.4000 ****
538 TO2   -47.008000  -26.078000   92.968000 T    180 GLP     0.6000 ****
539 TO1   -51.386000  -28.507000  101.625000 T    180 GLP    -0.6000 ****
540 HO1   -55.763000  -30.935000  110.282000 H    180 GLP     0.4000 ****
541 TO2   -43.049000  -32.428000   92.888000 T    181 GLP     0.6000 ****
542 TO1   -47.058000  -35.447000  101.537000 T    181 GLP    -0.6000 ****
543 HO1   -51.067000  -38.467000  110.187000 H    181 GLP     0.4000 ****
544 TO2   -38.249000  -38.167000   92.808000 T    182 GLP     0.6000 ****
545 TO1   -41.810000  -41.721000  101.450000 T    182 GLP    -0.6000 ****
546 HO1   -45.372000  -45.276000  110.092000 H    182 GLP     0.4000 ****
547 TO2   -32.701000  -43.189000   92.727000 T    183 GLP     0.6000 ****
548 TO1   -35.746000  -47.210000  101.362000 T    183 GLP    -0.6000 ****
549 HO1   -38.791000  -51.232000  109.996000 H    183 GLP     0.4000 ****
550 TO2   -26.514000  -47.397000   92.647000 T    184 GLP     0.6000 ****
551 TO1   -28.983000  -51.811000  101.274000 T    184 GLP    -0.6000 ****
552 HO1   -31.452000  -56.224000  109.901000 H    184 GLP     0.4000 ****
553 TO2   -19.808000  -50.715000   92.567000 T    185 GLP     0.6000 ****
554 TO1   -21.652000  -55.438000  101.186000 T    185 GLP    -0.6000 ****
555 HO1   -23.497000  -60.160000  109.806000 H    185 GLP     0.4000 ****
556 TO2   -12.709000  -53.082000   92.486000 T    186 GLP     0.6000 ****
557 TO1   -13.893000  -58.025000  101.098000 T    186 GLP    -0.6000 ****
558 HO1   -15.076000  -62.968000  109.710000 H    186 GLP     0.4000 ****
559 TO2    -5.354000  -54.456000   92.406000 T    187 GLP     0.6000 ****
560 TO1    -5.853000  -59.527000  101.010000 T    187 GLP    -0.6000 ****
561 HO1    -6.351000  -64.598000  109.615000 H    187 GLP     0.4000 ****
562 TO2     2.120000  -54.813000   92.325000 T    188 GLP     0.6000 ****
563 TO1     2.317000  -59.917000  100.923000 T    188 GLP    -0.6000 ****
564 HO1     2.515000  -65.021000  109.520000 H    188 GLP     0.4000 ****
565 TO2     9.573000  -54.149000   92.245000 T    189 GLP     0.6000 ****
566 TO1    10.464000  -59.192000  100.835000 T    189 GLP    -0.6000 ****
567 HO1    11.356000  -64.234000  109.424000 H    189 GLP     0.4000 ****
568 TO2    16.867000  -52.480000   92.165000 T    190 GLP     0.6000 ****
569 TO1    18.437000  -57.367000  100.747000 T    190 GLP    -0.6000 ****
570 HO1    20.008000  -62.253000  109.329000 H    190 GLP     0.4000 ****
571 TO2    23.867000  -49.838000   92.084000 T    191 GLP     0.6000 ****
572 TO1    26.089000  -54.478000  100.659000 T    191 GLP    -0.6000 ****
573 HO1    28.312000  -59.119000  109.234000 H    191 GLP     0.4000 ****
574 TO2    30.446000  -46.274000   92.004000 T    192 GLP     0.6000 ****
575 TO1    33.281000  -50.583000  100.571000 T    192 GLP    -0.6000 ****
576 HO1    36.116000  -54.892000  109.138000 H    192 GLP     0.4000 ****
577 TO2    36.484000  -41.856000   91.924000 T    193 GLP     0.6000 ****
578 TO1    39.882000  -45.753000  100.483000 T    193 GLP    -0.6000 ****
579 HO1    43.279000  -49.650000  109.043000 H    193 GLP     0.4000 ****
580 TO2    41.874000  -36.665000   91.843000 T    194 GLP     0.6000 ****
581 TO1    45.773000  -40.080000  100.396000 T    194 GLP    -0.6000 ****
582 HO1    49.672000  -43.494000  108.948000 H    194 GLP     0.4000 ****
583 TO2    46.518000  -30.799000   91.763000 T    195 GLP     0.6000 ****
584 TO1    50.850000  -33.667000  100.308000 T    195 GLP    -0.6000 ****
585 HO1    55.181000  -36.535000  108.852000 H    195 GLP     0.4000 ****
586 TO2    50.335000  -24.364000   91.683000 T    196 GLP     0.6000 ****
587 TO1    55.023000  -26.633000  100.220000 T    196 GLP    -0.6000 ****
588 HO1    59.710000  -28.901000  108.757000 H    196 GLP     0.4000 ****
589 TO2    53.259000  -17.477000   91.602000 T    197 GLP     0.6000 ****
590 TO1    58.219000  -19.104000  100.132000 T    197 GLP    -0.6000 ****
591 HO1    63.178000  -20.731000  108.662000 H    197 GLP     0.4000 ****
592 TO2    55.240000  -10.261000   91.522000 T    198 GLP     0.6000 ****
593 TO1    60.383000  -11.217000  100.044000 T    198 GLP    -0.6000 ****
594 HO1    65.527000  -12.172000  108.566000 H    198 GLP     0.4000 ****
595 TO2    56.243000   -2.847000   91.442000 T    199 GLP     0.6000 ****
596 TO1    61.480000   -3.112000   99.956000 T    199 GLP    -0.6000 ****
597 HO1    66.718000   -3.377000  108.471000 H    199 GLP     0.4000 ****
598 TO2    56.255000    4.635000   91.361000 T    200 GLP     0.6000 ****
599 TO1    61.493000    5.067000   99.869000 T    200 GLP    -0.6000 ****
600 HO1    66.731000    5.498000  108.376000 H    200 GLP     0.4000 ****
601 TO2    55.276000   12.053000   91.281000 T    201 GLP     0.6000 ****
602 TO1    60.424000   13.175000   99.781000 T    201 GLP    -0.6000 ****
603 HO1    65.571000   14.298000  108.281000 H    201 GLP     0.4000 ****
604 TO2    53.328000   19.277000   91.201000 T    202 GLP     0.6000 ****
605 TO1    58.293000   21.072000   99.693000 T    202 GLP    -0.6000 ****
606 HO1    63.259000   22.867000  108.185000 H    202 GLP     0.4000 ****
607 TO2    50.444000   26.181000   91.120000 T    203 GLP     0.6000 ****
608 TO1    55.142000   28.619000   99.605000 T    203 GLP    -0.6000 ****
609 HO1    59.839000   31.057000  108.090000 H    203 GLP     0.4000 ****
610 TO2    46.679000   32.646000   91.040000 T    204 GLP     0.6000 ****
611 TO1    51.026000   35.686000   99.517000 T    204 GLP    -0.6000 ****
612 HO1    55.372000   38.726000  107.995000 H    204 GLP     0.4000 ****
613 TO2    42.099000   38.562000   90.959000 T    205 GLP     0.6000 ****
614 TO1    46.019000   42.153000   99.429000 T    205 GLP    -0.6000 ****
615 HO1    49.939000   45.744000  107.899000 H    205 GLP     0.4000 ****
616 TO2    36.784000   43.828000   90.879000 T    206 GLP     0.6000 ****
617 TO1    40.209000   47.909000   99.342000 T    206 GLP    -0.6000 ****
618 HO1    43.634000   51.991000  107.804000 H    206 GLP     0.4000 ****
619 TO2    30.827000   48.355000   90.799000 T    207 GLP     0.6000 ****
620 TO1    33.697000   52.858000   99.254000 T    207 GLP    -0.6000 ****
621 HO1    36.568000   57.361000  107.709000 H    207 GLP     0.4000 ****
622 TO2    24.331000   52.068000   90.718000 T    208 GLP     0.6000 ****
623 TO1    26.597000   56.917000   99.166000 T    208 GLP    -0.6000 ****
624 HO1    28.863000   61.765000  107.613000 H    208 GLP     0.4000 ****
625 TO2    17.408000   54.906000   90.638000 T    209 GLP     0.6000 ****
626 TO1    19.029000   60.019000   99.078000 T    209 GLP    -0.6000 ****
627 HO1    20.650000   65.131000  107.518000 H    209 GLP     0.4000 ****
628 TO2    10.176000   56.822000   90.558000 T    210 GLP     0.6000 ****
629 TO1    11.124000   62.113000   98.990000 T    210 GLP    -0.6000 ****
630 HO1    12.071000   67.404000  107.423000 H    210 GLP     0.4000 ****
631 TO2     2.757000   57.786000   90.477000 T    211 GLP     0.6000 ****
632 TO1     3.013000   63.167000   98.902000 T    211 GLP    -0.6000 ****
633 HO1     3.270000   68.548000  107.327000 H    211 GLP     0.4000 ****
634 TO2    -4.725000   57.784000   90.397000 T    212 GLP     0.6000 ****
635 TO1    -5.165000   63.165000   98.815000 T    212 GLP    -0.6000 ****
636 HO1    -5.605000   68.546000  107.232000 H    212 GLP     0.4000 ****
637 TO2   -12.144000   56.819000   90.317000 T    213 GLP     0.6000 ****
638 TO1   -13.275000   62.110000   98.727000 T    213 GLP    -0.6000 ****
639 HO1   -14.406000   67.401000  107.137000 H    213 GLP     0.4000 ****
640 TO2   -19.378000   54.908000   90.236000 T    214 GLP     0.6000 ****
641 TO1   -21.182000   60.021000   98.639000 T    214 GLP    -0.6000 ****
642 HO1   -22.987000   65.134000  107.041000 H    214 GLP     0.4000 ****
643 TO2   -26.306000   52.085000   90.156000 T    215 GLP     0.6000 ****
644 TO1   -28.756000   56.935000   98.551000 T    215 GLP    -0.6000 ****
645 HO1   -31.206000   61.785000  106.946000 H    215 GLP     0.4000 ****
646 TO2   -32.817000   48.398000   90.076000 T    216 GLP     0.6000 ****
647 TO1   -35.873000   52.905000   98.463000 T    216 GLP    -0.6000 ****
648 HO1   -38.928000   57.412000  106.851000 H    216 GLP     0.4000 ****
649 TO2   -38.803000   43.911000   89.995000 T    217 GLP     0.6000 ****
650 TO1   -42.416000   48.000000   98.375000 T    217 GLP    -0.6000 ****
651 HO1   -46.029000   52.088000  106.755000 H    217 GLP     0.4000 ****
652 TO2   -44.168000   38.697000   89.915000 T    218 GLP     0.6000 ****
653 TO1   -48.281000   42.300000   98.288000 T    218 GLP    -0.6000 ****
654 HO1   -52.394000   45.903000  106.660000 H    218 GLP     0.4000 ****
655 TO2   -48.827000   32.843000   89.835000 T    219 GLP     0.6000 ****
656 TO1   -53.374000   35.901000   98.200000 T    219 GLP    -0.6000 ****
657 HO1   -57.920000   38.959000  106.565000 H    219 GLP     0.4000 ****
658 TO2   -52.705000   26.445000   89.754000 T    220 GLP     0.6000 ****
659 TO1   -57.613000   28.907000   98.112000 T    220 GLP    -0.6000 ****
660 HO1   -62.521000   31.370000  106.469000 H    220 GLP     0.4000 ****
661 TO2   -55.742000   19.607000   89.674000 T    221 GLP     0.6000 ****
662 TO1   -60.932000   21.433000   98.024000 T    221 GLP    -0.6000 ****
663 HO1   -66.123000   23.259000  106.374000 H    221 GLP     0.4000 ****
664 TO2   -57.890000   12.441000   89.593000 T    222 GLP     0.6000 ****
665 TO1   -63.280000   13.599000   97.936000 T    222 GLP    -0.6000 ****
666 HO1   -68.671000   14.757000  106.279000 H    222 GLP     0.4000 ****
667 TO2   -59.116000    5.060000   89.513000 T    223 GLP     0.6000 ****
668 TO1   -64.621000    5.532000   97.848000 T    223 GLP    -0.6000 ****
669 HO1   -70.126000    6.003000  106.184000 H    223 GLP     0.4000 ****
670 TO2   -59.405000   -2.416000   89.433000 T    224 GLP     0.6000 ****
671 TO1   -64.936000   -2.640000   97.761000 T    224 GLP    -0.6000 ****
672 HO1   -70.468000   -2.865000  106.088000 H    224 GLP     0.4000 ****
673 TO2   -58.751000   -9.868000   89.352000 T    225 GLP     0.6000 ****
674 TO1   -64.222000  -10.787000   97.673000 T    225 GLP    -0.6000 ****
675 HO1   -69.693000  -11.706000  105.993000 H    225 GLP     0.4000 ****
676 TO2   -57.169000  -17.181000   89.272000 T    226 GLP     0.6000 ****
677 TO1   -62.492000  -18.780000   97.585000 T    226 GLP    -0.6000 ****
678 HO1   -67.816000  -20.380000  105.898000 H    226 GLP     0.4000 ****
679 TO2   -54.684000  -24.237000   89.192000 T    227 GLP     0.6000 ****
680 TO1   -59.776000  -26.494000   97.497000 T    227 GLP    -0.6000 ****
681 HO1   -64.868000  -28.751000  105.802000 H    227 GLP     0.4000 ****
682 TO2   -51.338000  -30.928000   89.111000 T    228 GLP     0.6000 ****
683 TO1   -56.118000  -33.808000   97.409000 T    228 GLP    -0.6000 ****
684 HO1   -60.899000  -36.688000  105.707000 H    228 GLP     0.4000 ****
685 TO2   -47.184000  -37.150000   89.031000 T    229 GLP     0.6000 ****
686 TO1   -51.577000  -40.610000   97.321000 T    229 GLP    -0.6000 ****
687 HO1   -55.971000  -44.069000  105.612000 H    229 GLP     0.4000 ****
688 TO2   -42.288000  -42.807000   88.951000 T    230 GLP     0.6000 ****
689 TO1   -46.226000  -46.794000   97.233000 T    230 GLP    -0.6000 ****
690 HO1   -50.163000  -50.780000  105.516000 H    230 GLP     0.4000 ****
691 TO2   -36.728000  -47.813000   88.870000 T    231 GLP     0.6000 ****
692 TO1   -40.148000  -52.265000   97.146000 T    231 GLP    -0.6000 ****
693 HO1   -43.568000  -56.718000  105.421000 H    231 GLP     0.4000 ****
694 TO2   -30.591000  -52.091000   88.790000 T    232 GLP     0.6000 ****
695 TO1   -33.439000  -56.942000   97.058000 T    232 GLP    -0.6000 ****
696 HO1   -36.288000  -61.793000  105.326000 H    232 GLP     0.4000 ****
697 TO2   -23.972000  -55.578000   88.710000 T    233 GLP     0.6000 ****
698 TO1   -26.204000  -60.753000   96.970000 T    233 GLP    -0.6000 ****
699 HO1   -28.436000  -65.929000  105.230000 H    233 GLP     0.4000 ****
700 TO2   -16.973000  -58.221000   88.629000 T    234 GLP     0.6000 ****
701 TO1   -18.553000  -63.643000   96.882000 T    234 GLP    -0.6000 ****
702 HO1   -20.134000  -69.064000  105.135000 H    234 GLP     0.4000 ****
703 TO2    -9.702000  -59.983000   88.549000 T    235 GLP     0.6000 ****
704 TO1   -10.606000  -65.568000   96.794000 T    235 GLP    -0.6000 ****
705 HO1   -11.509000  -71.154000  105.040000 H    235 GLP     0.4000 ****
706 TO2    -2.270000  -60.837000   88.469000 T    236 GLP     0.6000 ****
707 TO1    -2.481000  -66.502000   96.706000 T    236 GLP    -0.6000 ****
708 HO1    -2.693000  -72.167000  104.944000 H    236 GLP     0.4000 ****
709 TO2     5.211000  -60.773000   88.388000 T    237 GLP     0.6000 ****
710 TO1     5.696000  -66.432000   96.619000 T    237 GLP    -0.6000 ****
711 HO1     6.182000  -72.091000  104.849000 H    237 GLP     0.4000 ****
712 TO2    12.628000  -59.793000   88.308000 T    238 GLP     0.6000 ****
713 TO1    13.804000  -65.361000   96.531000 T    238 GLP    -0.6000 ****
714 HO1    14.979000  -70.929000  104.754000 H    238 GLP     0.4000 ****
715 TO2    19.869000  -57.915000   88.227000 T    239 GLP     0.6000 ****
716 TO1    21.719000  -63.307000   96.443000 T    239 GLP    -0.6000 ****
717 HO1    23.569000  -68.700000  104.658000 H    239 GLP     0.4000 ****
718 TO2    26.827000  -55.167000   88.147000 T    240 GLP     0.6000 ****
719 TO1    29.325000  -60.304000   96.355000 T    240 GLP    -0.6000 ****
720 HO1    31.823000  -65.440000  104.563000 H    240 GLP     0.4000 ****
721 TO2    33.399000  -51.592000   88.067000 T    241 GLP     0.6000 ****
722 TO1    36.509000  -56.396000   96.267000 T    241 GLP    -0.6000 ****
723 HO1    39.619000  -61.200000  104.468000 H    241 GLP     0.4000 ****
724 TO2    39.488000  -47.245000   87.986000 T    242 GLP     0.6000 ****
725 TO1    43.165000  -51.644000   96.179000 T    242 GLP    -0.6000 ****
726 HO1    46.842000  -56.044000  104.373000 H    242 GLP     0.4000 ****
727 TO2    45.004000  -42.192000   87.906000 T    243 GLP     0.6000 ****
728 TO1    49.195000  -46.120000   96.092000 T    243 GLP    -0.6000 ****
729 HO1    53.385000  -50.049000  104.277000 H    243 GLP     0.4000 ****
730 TO2    49.868000  -36.508000   87.826000 T    244 GLP     0.6000 ****
731 TO1    54.511000  -39.907000   96.004000 T    244 GLP    -0.6000 ****
732 HO1    59.155000  -43.307000  104.182000 H    244 GLP     0.4000 ****
733 TO2    54.009000  -30.278000   87.745000 T    245 GLP     0.6000 ****
734 TO1    59.038000  -33.097000   95.916000 T    245 GLP    -0.6000 ****
735 HO1    64.068000  -35.916000  104.087000 H    245 GLP     0.4000 ****
736 TO2    57.369000  -23.593000   87.665000 T    246 GLP     0.6000 ****
737 TO1    62.711000  -25.790000   95.828000 T    246 GLP    -0.6000 ****
738 HO1    68.053000  -27.987000  103.991000 H    246 GLP     0.4000 ****
739 TO2    59.899000  -16.553000   87.585000 T    247 GLP     0.6000 ****
740 TO1    65.477000  -18.095000   95.740000 T    247 GLP    -0.6000 ****
741 HO1    71.054000  -19.636000  103.896000 H    247 GLP     0.4000 ****
742 TO2    61.565000   -9.260000   87.504000 T    248 GLP     0.6000 ****
743 TO1    67.297000  -10.122000   95.652000 T    248 GLP    -0.6000 ****
744 HO1    73.030000  -10.985000  103.801000 H    248 GLP     0.4000 ****
745 TO2    62.343000   -1.820000   87.424000 T    249 GLP     0.6000 ****
746 TO1    68.149000   -1.989000   95.565000 T    249 GLP    -0.6000 ****
747 HO1    73.954000   -2.159000  103.705000 H    249 GLP     0.4000 ****
748 TO2    62.226000    5.660000   87.344000 T    250 GLP     0.6000 ****
749 TO1    68.020000    6.187000   95.477000 T    250 GLP    -0.6000 ****
750 HO1    73.814000    6.714000  103.610000 H    250 GLP     0.4000 ****
751 TO2    61.214000   13.072000   87.263000 T    251 GLP     0.6000 ****
752 TO1    66.915000   14.290000   95.389000 T    251 GLP    -0.6000 ****
753 HO1    72.615000   15.507000  103.515000 H    251 GLP     0.4000 ****
754 TO2    59.326000   20.311000   87.183000 T    252 GLP     0.6000 ****
755 TO1    64.850000   22.202000   95.301000 T    252 GLP    -0.6000 ****
756 HO1    70.375000   24.094000  103.419000 H    252 GLP     0.4000 ****
757 TO2    56.589000   27.273000   87.103000 T    253 GLP     0.6000 ****
758 TO1    61.858000   29.813000   95.213000 T    253 GLP    -0.6000 ****
759 HO1    67.128000   32.352000  103.324000 H    253 GLP     0.4000 ****
760 TO2    53.043000   33.860000   87.022000 T    254 GLP     0.6000 ****
761 TO1    57.982000   37.013000   95.125000 T    254 GLP    -0.6000 ****
762 HO1    62.922000   40.166000  103.229000 H    254 GLP     0.4000 ****
763 TO2    48.741000   39.980000   86.942000 T    255 GLP     0.6000 ****
764 TO1    53.280000   43.703000   95.038000 T    255 GLP    -0.6000 ****
765 HO1    57.818000   47.426000  103.133000 H    255 GLP     0.4000 ****
766 TO2    43.744000   45.547000   86.861000 T    256 GLP     0.6000 ****
767 TO1    47.817000   49.788000   94.950000 T    256 GLP    -0.6000 ****
768 HO1    51.890000   54.029000  103.038000 H    256 GLP     0.4000 ****
769 TO2    38.123000   50.484000   86.781000 T    257 GLP     0.6000 ****
770 TO1    41.673000   55.185000   94.862000 T    257 GLP    -0.6000 ****
771 HO1    45.223000   59.886000  102.943000 H    257 GLP     0.4000 ****
772 TO2    31.959000   54.722000   86.701000 T    258 GLP     0.6000 ****
773 TO1    34.935000   59.818000   94.774000 T    258 GLP    -0.6000 ****
774 HO1    37.911000   64.914000  102.847000 H    258 GLP     0.4000 ****
775 TO2    25.339000   58.205000   86.620000 T    259 GLP     0.6000 ****
776 TO1    27.698000   63.625000   94.686000 T    259 GLP    -0.6000 ****
777 HO1    30.057000   69.045000  102.752000 H    259 GLP     0.4000 ****
778 TO2    18.354000   60.884000   86.540000 T    260 GLP     0.6000 ****
779 TO1    20.063000   66.554000   94.598000 T    260 GLP    -0.6000 ****
780 HO1    21.772000   72.223000  102.657000 H    260 GLP     0.4000 ****
781 TO2    11.103000   62.725000   86.460000 T    261 GLP     0.6000 ****
782 TO1    12.137000   68.566000   94.511000 T    261 GLP    -0.6000 ****
783 HO1    13.171000   74.406000  102.561000 H    261 GLP     0.4000 ****
784 TO2     3.687000   63.702000   86.379000 T    262 GLP     0.6000 ****
785 TO1     4.030000   69.634000   94.423000 T    262 GLP    -0.6000 ****
786 HO1     4.373000   75.566000  102.466000 H    262 GLP     0.4000 ****
787 TO2    -3.793000   63.805000   86.299000 T    263 GLP     0.6000 ****
788 TO1    -4.146000   69.746000   94.335000 T    263 GLP    -0.6000 ****
789 HO1    -4.500000   75.687000  102.371000 H    263 GLP     0.4000 ****
790 TO2   -11.234000   63.033000   86.219000 T    264 GLP     0.6000 ****
791 TO1   -12.280000   68.902000   94.247000 T    264 GLP    -0.6000 ****
792 HO1   -13.326000   74.771000  102.276000 H    264 GLP     0.4000 ****
793 TO2   -18.534000   61.398000   86.138000 T    265 GLP     0.6000 ****
794 TO1   -20.259000   67.115000   94.159000 T    265 GLP    -0.6000 ****
795 HO1   -21.985000   72.832000  102.180000 H    265 GLP     0.4000 ****
796 TO2   -25.593000   58.924000   86.058000 T    266 GLP     0.6000 ****
797 TO1   -27.976000   64.410000   94.071000 T    266 GLP    -0.6000 ****
798 HO1   -30.360000   69.897000  102.085000 H    266 GLP     0.4000 ****
799 TO2   -32.317000   55.645000   85.978000 T    267 GLP     0.6000 ****
800 TO1   -35.327000   60.827000   93.984000 T    267 GLP    -0.6000 ****
801 HO1   -38.336000   66.008000  101.990000 H    267 GLP     0.4000 ****
802 TO2   -38.615000   51.609000   85.897000 T    268 GLP     0.6000 ****
803 TO1   -42.211000   56.415000   93.896000 T    268 GLP    -0.6000 ****
804 HO1   -45.807000   61.220000  101.894000 H    268 GLP     0.4000 ****
805 TO2   -44.403000   46.870000   85.817000 T    269 GLP     0.6000 ****
806 TO1   -48.538000   51.234000   93.808000 T    269 GLP    -0.6000 ****
807 HO1   -52.673000   55.599000  101.799000 H    269 GLP     0.4000 ****
808 TO2   -49.604000   41.493000   85.737000 T    270 GLP     0.6000 ****
809 TO1   -54.223000   45.357000   93.720000 T    270 GLP    -0.6000 ****
810 HO1   -58.842000   49.220000  101.704000 H    270 GLP     0.4000 ****
811 TO2   -54.149000   35.551000   85.656000 T    271 GLP     0.6000 ****
812 TO1   -59.191000   38.862000   93.632000 T    271 GLP    -0.6000 ****
813 HO1   -64.233000   42.172000  101.608000 H    271 GLP     0.4000 ****
814 TO2   -57.978000   29.125000   85.576000 T    272 GLP     0.6000 ****
815 TO1   -63.377000   31.837000   93.544000 T    272 GLP    -0.6000 ****
816 HO1   -68.776000   34.549000  101.513000 H    272 GLP     0.4000 ****
817 TO2   -61.042000   22.301000   85.495000 T    273 GLP     0.6000 ****
818 TO1   -66.726000   24.378000   93.457000 T    273 GLP    -0.6000 ****
819 HO1   -72.410000   26.454000  101.418000 H    273 GLP     0.4000 ****
820 TO2   -63.302000   15.170000   85.415000 T    274 GLP     0.6000 ****
821 TO1   -69.196000   16.582000   93.369000 T    274 GLP    -0.6000 ****
822 HO1   -75.091000   17.995000  101.322000 H    274 GLP     0.4000 ****
823 TO2   -64.728000    7.827000   85.335000 T    275 GLP     0.6000 ****
824 TO1   -70.755000    8.555000   93.281000 T    275 GLP    -0.6000 ****
825 HO1   -76.782000    9.284000  101.227000 H    275 GLP     0.4000 ****
826 TO2   -65.303000    0.368000   85.254000 T    276 GLP     0.6000 ****
827 TO1   -71.384000    0.403000   93.193000 T    276 GLP    -0.6000 ****
828 HO1   -77.465000    0.437000  101.132000 H    276 GLP     0.4000 ****
829 TO2   -65.022000   -7.107000   85.174000 T    277 GLP     0.6000 ****
830 TO1   -71.076000   -7.769000   93.105000 T    277 GLP    -0.6000 ****
831 HO1   -77.131000   -8.430000  101.036000 H    277 GLP     0.4000 ****
832 TO2   -63.889000  -14.501000   85.094000 T    278 GLP     0.6000 ****
833 TO1   -69.838000  -15.851000   93.017000 T    278 GLP    -0.6000 ****
834 HO1   -75.787000  -17.201000  100.941000 H    278 GLP     0.4000 ****
835 TO2   -61.920000  -21.718000   85.013000 T    279 GLP     0.6000 ****
836 TO1   -67.685000  -23.740000   92.930000 T    279 GLP    -0.6000 ****
837 HO1   -73.451000  -25.762000  100.846000 H    279 GLP     0.4000 ****
838 TO2   -59.142000  -28.663000   84.933000 T    280 GLP     0.6000 ****
839 TO1   -64.649000  -31.332000   92.842000 T    280 GLP    -0.6000 ****
840 HO1   -70.156000  -34.001000  100.750000 H    280 GLP     0.4000 ****
841 TO2   -55.593000  -35.248000   84.853000 T    281 GLP     0.6000 ****
842 TO1   -60.770000  -38.530000   92.754000 T    281 GLP    -0.6000 ****
843 HO1   -65.946000  -41.812000  100.655000 H    281 GLP     0.4000 ****
844 TO2   -51.320000  -41.387000   84.772000 T    282 GLP     0.6000 ****
845 TO1   -56.098000  -45.241000   92.666000 T    282 GLP    -0.6000 ****
846 HO1   -60.877000  -49.095000  100.560000 H    282 GLP     0.4000 ****
847 TO2   -46.378000  -47.003000   84.692000 T    283 GLP     0.6000 ****
848 TO1   -50.697000  -51.380000   92.578000 T    283 GLP    -0.6000 ****
849 HO1   -55.015000  -55.757000  100.464000 H    283 GLP     0.4000 ****
850 TO2   -40.833000  -52.024000   84.612000 T    284 GLP     0.6000 ****
851 TO1   -44.635000  -56.868000   92.490000 T    284 GLP    -0.6000 ****
852 HO1   -48.438000  -61.713000  100.369000 H    284 GLP     0.4000 ****
853 TO2   -34.756000  -56.386000   84.531000 T    285 GLP     0.6000 ****
854 TO1   -37.993000  -61.637000   92.403000 T    285 GLP    -0.6000 ****
855 HO1   -41.229000  -66.887000  100.274000 H    285 GLP     0.4000 ****
856 TO2   -28.227000  -60.036000   84.451000 T    286 GLP     0.6000 ****
857 TO1   -30.855000  -65.626000   92.315000 T    286 GLP    -0.6000 ****
858 HO1   -33.483000  -71.216000  100.179000 H    286 GLP     0.4000 ****
859 TO2   -21.328000  -62.926000   84.371000 T    287 GLP     0.6000 ****
860 TO1   -23.313000  -68.786000   92.227000 T    287 GLP    -0.6000 ****
861 HO1   -25.299000  -74.645000  100.083000 H    287 GLP     0.4000 ****
862 TO2   -14.147000  -65.023000   84.290000 T    288 GLP     0.6000 ****
863 TO1   -15.464000  -71.078000   92.139000 T    288 GLP    -0.6000 ****
864 HO1   -16.782000  -77.133000   99.988000 H    288 GLP     0.4000 ****
865 TO2    -6.777000  -66.300000   84.210000 T    289 GLP     0.6000 ****
866 TO1    -7.408000  -72.474000   92.051000 T    289 GLP    -0.6000 ****
867 HO1    -8.039000  -78.648000   99.893000 H    289 GLP     0.4000 ****
868 TO2     0.690000  -66.744000   84.129000 T    290 GLP     0.6000 ****
869 TO1     0.755000  -72.959000   91.963000 T    290 GLP    -0.6000 ****
870 HO1     0.819000  -79.174000   99.797000 H    290 GLP     0.4000 ****
871 TO2     8.160000  -66.348000   84.049000 T    291 GLP     0.6000 ****
872 TO1     8.920000  -72.527000   91.876000 T    291 GLP    -0.6000 ****
873 HO1     9.680000  -78.705000   99.702000 H    291 GLP     0.4000 ****
874 TO2    15.539000  -65.121000   83.969000 T    292 GLP     0.6000 ****
875 TO1    16.986000  -71.185000   91.788000 T    292 GLP    -0.6000 ****
876 HO1    18.433000  -77.249000   99.607000 H    292 GLP     0.4000 ****
877 TO2    22.735000  -63.078000   83.888000 T    293 GLP     0.6000 ****
878 TO1    24.852000  -68.952000   91.700000 T    293 GLP    -0.6000 ****
879 HO1    26.969000  -74.825000   99.511000 H    293 GLP     0.4000 ****
880 TO2    29.658000  -60.246000   83.808000 T    294 GLP     0.6000 ****
881 TO1    32.420000  -65.856000   91.612000 T    294 GLP    -0.6000 ****
882 HO1    35.181000  -71.466000   99.416000 H    294 GLP     0.4000 ****
883 TO2    36.223000  -56.661000   83.728000 T    295 GLP     0.6000 ****
884 TO1    39.596000  -61.937000   91.524000 T    295 GLP    -0.6000 ****
885 HO1    42.969000  -67.214000   99.321000 H    295 GLP     0.4000 ****
886 TO2    42.350000  -52.370000   83.647000 T    296 GLP     0.6000 ****
887 TO1    46.293000  -57.246000   91.436000 T    296 GLP    -0.6000 ****
888 HO1    50.237000  -62.123000   99.225000 H    296 GLP     0.4000 ****
889 TO2    47.963000  -47.425000   83.567000 T    297 GLP     0.6000 ****
890 TO1    52.429000  -51.841000   91.349000 T    297 GLP    -0.6000 ****
891 HO1    56.895000  -56.257000   99.130000 H    297 GLP     0.4000 ****
892 TO2    52.993000  -41.889000   83.487000 T    298 GLP     0.6000 ****
893 TO1    57.928000  -45.789000   91.261000 T    298 GLP    -0.6000 ****
894 HO1    62.862000  -49.690000   99.035000 H    298 GLP     0.4000 ****
895 TO2    57.381000  -35.831000   83.406000 T    299 GLP     0.6000 ****
896 TO1    62.724000  -39.167000   91.173000 T    299 GLP    -0.6000 ****
897 HO1    68.067000  -42.503000   98.939000 H    299 GLP     0.4000 ****
898 TO2    61.072000  -29.325000   83.326000 T    300 GLP     0.6000 ****
899 TO1    66.759000  -32.056000   91.085000 T    300 GLP    -0.6000 ****
900 HO1    72.446000  -34.786000   98.844000 H    300 GLP     0.4000 ****
901 TO2    64.024000  -22.452000   83.246000 T    301 GLP     0.6000 ****
902 TO1    69.986000  -24.542000   90.997000 T    301 GLP    -0.6000 ****
903 HO1    75.947000  -26.633000   98.749000 H    301 GLP     0.4000 ****
904 TO2    66.201000  -15.296000   83.165000 T    302 GLP     0.6000 ****
905 TO1    72.365000  -16.720000   90.909000 T    302 GLP    -0.6000 ****
906 HO1    78.530000  -18.144000   98.653000 H    302 GLP     0.4000 ****
907 TO2    67.578000   -7.943000   83.085000 T    303 GLP     0.6000 ****
908 TO1    73.871000   -8.683000   90.822000 T    303 GLP    -0.6000 ****
909 HO1    80.163000   -9.423000   98.558000 H    303 GLP     0.4000 ****
910 TO2    68.139000   -0.484000   83.005000 T    304 GLP     0.6000 ****
911 TO1    74.484000   -0.529000   90.734000 T    304 GLP    -0.6000 ****
912 HO1    80.829000   -0.575000   98.463000 H    304 GLP     0.4000 ****
913 TO2    67.880000    6.991000   82.924000 T    305 GLP     0.6000 ****
914 TO1    74.201000    7.642000   90.646000 T    305 GLP    -0.6000 ****
915 HO1    80.521000    8.293000   98.368000 H    305 GLP     0.4000 ****
916 TO2    66.803000   14.393000   82.844000 T    306 GLP     0.6000 ****
917 TO1    73.024000   15.734000   90.558000 T    306 GLP    -0.6000 ****
918 HO1    79.245000   17.074000   98.272000 H    306 GLP     0.4000 ****
919 TO2    64.924000   21.633000   82.763000 T    307 GLP     0.6000 ****
920 TO1    70.970000   23.648000   90.470000 T    307 GLP    -0.6000 ****
921 HO1    77.015000   25.662000   98.177000 H    307 GLP     0.4000 ****
922 TO2    62.266000   28.625000   82.683000 T    308 GLP     0.6000 ****
923 TO1    68.064000   31.291000   90.382000 T    308 GLP    -0.6000 ****
924 HO1    73.862000   33.956000   98.082000 H    308 GLP     0.4000 ****
925 TO2    58.862000   35.285000   82.603000 T    309 GLP     0.6000 ****
926 TO1    64.343000   38.571000   90.295000 T    309 GLP    -0.6000 ****
927 HO1    69.824000   41.857000   97.986000 H    309 GLP     0.4000 ****
928 TO2    54.752000   41.536000   82.522000 T    310 GLP     0.6000 ****
929 TO1    59.851000   45.403000   90.207000 T    310 GLP    -0.6000 ****
930 HO1    64.949000   49.271000   97.891000 H    310 GLP     0.4000 ****
931 TO2    49.988000   47.302000   82.442000 T    311 GLP     0.6000 ****
932 TO1    54.643000   51.707000   90.119000 T    311 GLP    -0.6000 ****
933 HO1    59.297000   56.111000   97.796000 H    311 GLP     0.4000 ****
934 TO2    44.626000   52.517000   82.362000 T    312 GLP     0.6000 ****
935 TO1    48.781000   57.407000   90.031000 T    312 GLP    -0.6000 ****
936 HO1    52.937000   62.298000   97.700000 H    312 GLP     0.4000 ****
937 TO2    38.730000   57.120000   82.281000 T    313 GLP     0.6000 ****
938 TO1    42.336000   62.439000   89.943000 T    313 GLP    -0.6000 ****
939 HO1    45.943000   67.758000   97.605000 H    313 GLP     0.4000 ****
940 TO2    32.371000   61.058000   82.201000 T    314 GLP     0.6000 ****
941 TO1    35.385000   66.744000   89.855000 T    314 GLP    -0.6000 ****
942 HO1    38.399000   72.429000   97.510000 H    314 GLP     0.4000 ****
943 TO2    25.623000   64.286000   82.121000 T    315 GLP     0.6000 ****
944 TO1    28.009000   70.272000   89.768000 T    315 GLP    -0.6000 ****
945 HO1    30.395000   76.258000   97.414000 H    315 GLP     0.4000 ****
946 TO2    18.566000   66.766000   82.040000 T    316 GLP     0.6000 ****
947 TO1    20.295000   72.983000   89.680000 T    316 GLP    -0.6000 ****
948 HO1    22.024000   79.200000   97.319000 H    316 GLP     0.4000 ****
949 TO2    11.283000   68.471000   81.960000 T    317 GLP     0.6000 ****
950 TO1    12.334000   74.846000   89.592000 T    317 GLP    -0.6000 ****
951 HO1    13.384000   81.222000   97.224000 H    317 GLP     0.4000 ****
952 TO2     3.859000   69.382000   81.880000 T    318 GLP     0.6000 ****
953 TO1     4.218000   75.842000   89.504000 T    318 GLP    -0.6000 ****
954 HO1     4.577000   82.303000   97.128000 H    318 GLP     0.4000 ****
955 TO2    -3.620000   69.489000   81.799000 T    319 GLP     0.6000 ****
956 TO1    -3.957000   75.960000   89.416000 T    319 GLP    -0.6000 ****
957 HO1    -4.294000   82.430000   97.033000 H    319 GLP     0.4000 ****
958 TO2   -11.068000   68.793000   81.719000 T    320 GLP     0.6000 ****
959 TO1   -12.098000   75.199000   89.328000 T    320 GLP    -0.6000 ****
960 HO1   -13.129000   81.605000   96.938000 H    320 GLP     0.4000 ****
961 TO2   -18.397000   67.303000   81.639000 T    321 GLP     0.6000 ****
962 TO1   -20.111000   73.570000   89.240000 T    321 GLP    -0.6000 ****
963 HO1   -21.824000   79.837000   96.842000 H    321 GLP     0.4000 ****
964 TO2   -25.526000   65.036000   81.558000 T    322 GLP     0.6000 ****
965 TO1   -27.902000   71.092000   89.153000 T    322 GLP    -0.6000 ****
966 HO1   -30.279000   77.148000   96.747000 H    322 GLP     0.4000 ****
967 TO2   -32.370000   62.020000   81.478000 T    323 GLP     0.6000 ****
968 TO1   -35.385000   67.795000   89.065000 T    323 GLP    -0.6000 ****
969 HO1   -38.399000   73.570000   96.652000 H    323 GLP     0.4000 ****
970 TO2   -38.854000   58.290000   81.397000 T    324 GLP     0.6000 ****
971 TO1   -42.472000   63.718000   88.977000 T    324 GLP    -0.6000 ****
972 HO1   -46.090000   69.146000   96.556000 H    324 GLP     0.4000 ****
973 TO2   -44.903000   53.891000   81.317000 T    325 GLP     0.6000 ****
974 TO1   -49.084000   58.909000   88.889000 T    325 GLP    -0.6000 ****
975 HO1   -53.266000   63.927000   96.461000 H    325 GLP     0.4000 ****
976 TO2   -50.449000   48.872000   81.237000 T    326 GLP     0.6000 ****
977 TO1   -55.147000   53.423000   88.801000 T    326 GLP    -0.6000 ****
978 HO1   -59.844000   57.973000   96.366000 H    326 GLP     0.4000 ****
979 TO2   -55.430000   43.291000   81.156000 T    327 GLP     0.6000 ****
980 TO1   -60.591000   47.323000   88.713000 T    327 GLP    -0.6000 ****
981 HO1   -65.753000   51.354000   96.271000 H    327 GLP     0.4000 ****
982 TO2   -59.789000   37.214000   81.076000 T    328 GLP     0.6000 ****
983 TO1   -65.357000   40.679000   88.626000 T    328 GLP    -0.6000 ****
984 HO1   -70.924000   44.144000   96.175000 H    328 GLP     0.4000 ****
985 TO2   -63.480000   30.708000   80.996000 T    329 GLP     0.6000 ****
986 TO1   -69.391000   33.567000   88.538000 T    329 GLP    -0.6000 ****
987 HO1   -75.302000   36.427000   96.080000 H    329 GLP     0.4000 ****
988 TO2   -66.460000   23.847000   80.915000 T    330 GLP     0.6000 ****
989 TO1   -72.649000   26.068000   88.450000 T    330 GLP    -0.6000 ****
990 HO1   -78.837000   28.289000   95.985000 H    330 GLP     0.4000 ****
991 TO2   -68.698000   16.710000   80.835000 T    331 GLP     0.6000 ****
992 TO1   -75.095000   18.266000   88.362000 T    331 GLP    -0.6000 ****
993 HO1   -81.492000   19.822000   95.889000 H    331 GLP     0.4000 ****
994 TO2   -70.169000    9.377000   80.755000 T    332 GLP     0.6000 ****
995 TO1   -76.703000   10.250000   88.274000 T    332 GLP    -0.6000 ****
996 HO1   -83.237000   11.123000   95.794000 H    332 GLP     0.4000 ****
997 TO2   -70.858000    1.929000   80.674000 T    333 GLP     0.6000 ****
998 TO1   -77.456000    2.108000   88.186000 T    333 GLP    -0.6000 ****
999 HO1   -84.055000    2.288000   95.699000 H    333 GLP     0.4000 ****
1000 TO2   -70.759000   -5.550000   80.594000 T    334 GLP     0.6000 ****
1001 TO1   -77.347000   -6.067000   88.099000 T    334 GLP    -0.6000 ****
1002 HO1   -83.936000   -6.584000   95.603000 H    334 GLP     0.4000 ****
1003 TO2   -69.872000  -12.977000   80.514000 T    335 GLP     0.6000 ****
1004 TO1   -76.378000  -14.186000   88.011000 T    335 GLP    -0.6000 ****
1005 HO1   -82.885000  -15.394000   95.508000 H    335 GLP     0.4000 ****
1006 TO2   -68.210000  -20.270000   80.433000 T    336 GLP     0.6000 ****
1007 TO1   -74.561000  -22.157000   87.923000 T    336 GLP    -0.6000 ****
1008 HO1   -80.913000  -24.045000   95.413000 H    336 GLP     0.4000 ****
1009 TO2   -65.791000  -27.348000   80.353000 T    337 GLP     0.6000 ****
1010 TO1   -71.917000  -29.894000   87.835000 T    337 GLP    -0.6000 ****
1011 HO1   -78.044000  -32.441000   95.317000 H    337 GLP     0.4000 ****
1012 TO2   -62.644000  -34.133000   80.273000 T    338 GLP     0.6000 ****
1013 TO1   -68.477000  -37.311000   87.747000 T    338 GLP    -0.6000 ****
1014 HO1   -74.310000  -40.490000   95.222000 H    338 GLP     0.4000 ****
1015 TO2   -58.803000  -40.551000   80.192000 T    339 GLP     0.6000 ****
1016 TO1   -64.279000  -44.327000   87.659000 T    339 GLP    -0.6000 ****
1017 HO1   -69.754000  -48.103000   95.127000 H    339 GLP     0.4000 ****
1018 TO2   -54.312000  -46.532000   80.112000 T    340 GLP     0.6000 ****
1019 TO1   -59.369000  -50.865000   87.572000 T    340 GLP    -0.6000 ****
1020 HO1   -64.427000  -55.198000   95.031000 H    340 GLP     0.4000 ****
1021 TO2   -49.221000  -52.012000   80.031000 T    341 GLP     0.6000 ****
1022 TO1   -53.804000  -56.855000   87.484000 T    341 GLP    -0.6000 ****
1023 HO1   -58.387000  -61.698000   94.936000 H    341 GLP     0.4000 ****
1024 TO2   -43.586000  -56.930000   79.951000 T    342 GLP     0.6000 ****
1025 TO1   -47.644000  -62.232000   87.396000 T    342 GLP    -0.6000 ****
1026 HO1   -51.703000  -67.533000   94.841000 H    342 GLP     0.4000 ****
1027 TO2   -37.469000  -61.235000   79.871000 T    343 GLP     0.6000 ****
1028 TO1   -40.958000  -66.937000   87.308000 T    343 GLP    -0.6000 ****
1029 HO1   -44.447000  -72.639000   94.745000 H    343 GLP     0.4000 ****
1030 TO2   -30.937000  -64.879000   79.790000 T    344 GLP     0.6000 ****
1031 TO1   -33.818000  -70.921000   87.220000 T    344 GLP    -0.6000 ****
1032 HO1   -36.699000  -76.962000   94.650000 H    344 GLP     0.4000 ****
1033 TO2   -24.062000  -67.825000   79.710000 T    345 GLP     0.6000 ****
1034 TO1   -26.303000  -74.141000   87.132000 T    345 GLP    -0.6000 ****
1035 HO1   -28.544000  -80.457000   94.555000 H    345 GLP     0.4000 ****
1036 TO2   -16.919000  -70.042000   79.630000 T    346 GLP     0.6000 ****
1037 TO1   -18.494000  -76.564000   87.045000 T    346 GLP    -0.6000 ****
1038 HO1   -20.070000  -83.086000   94.460000 H    346 GLP     0.4000 ****
1039 TO2    -9.584000  -71.505000   79.549000 T    347 GLP     0.6000 ****
1040 TO1   -10.476000  -78.164000   86.957000 T    347 GLP    -0.6000 ****
1041 HO1   -11.369000  -84.822000   94.364000 H    347 GLP     0.4000 ****
1042 TO2    -2.137000  -72.202000   79.469000 T    348 GLP     0.6000 ****
1043 TO1    -2.336000  -78.925000   86.869000 T    348 GLP    -0.6000 ****
1044 HO1    -2.535000  -85.648000   94.269000 H    348 GLP     0.4000 ****
1045 TO2     5.342000  -72.124000   79.389000 T    349 GLP     0.6000 ****
1046 TO1     5.840000  -78.840000   86.781000 T    349 GLP    -0.6000 ****
1047 HO1     6.337000  -85.556000   94.174000 H    349 GLP     0.4000 ****
1048 TO2    12.774000  -71.274000   79.308000 T    350 GLP     0.6000 ****
1049 TO1    13.963000  -77.911000   86.693000 T    350 GLP    -0.6000 ****
1050 HO1    15.152000  -84.548000   94.078000 H    350 GLP     0.4000 ****
1051 TO2    20.077000  -69.662000   79.228000 T    351 GLP     0.6000 ****
1052 TO1    21.947000  -76.149000   86.605000 T    351 GLP    -0.6000 ****
1053 HO1    23.816000  -82.635000   93.983000 H    351 GLP     0.4000 ****
1054 TO2    27.176000  -67.306000   79.148000 T    352 GLP     0.6000 ****
1055 TO1    29.707000  -73.573000   86.518000 T    352 GLP    -0.6000 ****
1056 HO1    32.237000  -79.841000   93.888000 H    352 GLP     0.4000 ****
1057 TO2    33.995000  -64.232000   79.067000 T    353 GLP     0.6000 ****
1058 TO1    37.160000  -70.213000   86.430000 T    353 GLP    -0.6000 ****
1059 HO1    40.325000  -76.194000   93.792000 H    353 GLP     0.4000 ****
1060 TO2    40.461000  -60.473000   78.987000 T    354 GLP     0.6000 ****
1061 TO1    44.228000  -66.104000   86.342000 T    354 GLP    -0.6000 ****
1062 HO1    47.996000  -71.735000   93.697000 H    354 GLP     0.4000 ****
1063 TO2    46.507000  -56.070000   78.907000 T    355 GLP     0.6000 ****
1064 TO1    50.838000  -61.291000   86.254000 T    355 GLP    -0.6000 ****
1065 HO1    55.168000  -66.512000   93.602000 H    355 GLP     0.4000 ****
1066 TO2    52.070000  -51.070000   78.826000 T    356 GLP     0.6000 ****
1067 TO1    56.918000  -55.825000   86.166000 T    356 GLP    -0.6000 ****
1068 HO1    61.767000  -60.581000   93.506000 H    356 GLP     0.4000 ****
1069 TO2    57.091000  -45.527000   78.746000 T    357 GLP     0.6000 ****
1070 TO1    62.407000  -49.766000   86.078000 T    357 GLP    -0.6000 ****
1071 HO1    67.723000  -54.005000   93.411000 H    357 GLP     0.4000 ****
1072 TO2    61.519000  -39.499000   78.665000 T    358 GLP     0.6000 ****
1073 TO1    67.247000  -43.177000   85.991000 T    358 GLP    -0.6000 ****
1074 HO1    72.976000  -46.855000   93.316000 H    358 GLP     0.4000 ****
1075 TO2    65.307000  -33.050000   78.585000 T    359 GLP     0.6000 ****
1076 TO1    71.389000  -36.127000   85.903000 T    359 GLP    -0.6000 ****
1077 HO1    77.470000  -39.205000   93.220000 H    359 GLP     0.4000 ****
1078 TO2    68.418000  -26.248000   78.505000 T    360 GLP     0.6000 ****
1079 TO1    74.789000  -28.692000   85.815000 T    360 GLP    -0.6000 ****
1080 HO1    81.160000  -31.136000   93.125000 H    360 GLP     0.4000 ****
1081 TO2    70.819000  -19.164000   78.424000 T    361 GLP     0.6000 ****
1082 TO1    77.413000  -20.949000   85.727000 T    361 GLP    -0.6000 ****
1083 HO1    84.008000  -22.733000   93.030000 H    361 GLP     0.4000 ****
1084 TO2    72.486000  -11.873000   78.344000 T    362 GLP     0.6000 ****
1085 TO1    79.236000  -12.978000   85.639000 T    362 GLP    -0.6000 ****
1086 HO1    85.985000  -14.084000   92.934000 H    362 GLP     0.4000 ****
1087 TO2    73.403000   -4.450000   78.264000 T    363 GLP     0.6000 ****
1088 TO1    80.238000   -4.864000   85.551000 T    363 GLP    -0.6000 ****
1089 HO1    87.073000   -5.278000   92.839000 H    363 GLP     0.4000 ****
1090 TO2    73.561000    3.028000   78.183000 T    364 GLP     0.6000 ****
1091 TO1    80.410000    3.310000   85.464000 T    364 GLP    -0.6000 ****
1092 HO1    87.260000    3.592000   92.744000 H    364 GLP     0.4000 ****
1093 TO2    72.959000   10.483000   78.103000 T    365 GLP     0.6000 ****
1094 TO1    79.753000   11.459000   85.376000 T    365 GLP    -0.6000 ****
1095 HO1    86.546000   12.435000   92.648000 H    365 GLP     0.4000 ****
1096 TO2    71.605000   17.839000   78.023000 T    366 GLP     0.6000 ****
1097 TO1    78.272000   19.500000   85.288000 T    366 GLP    -0.6000 ****
1098 HO1    84.940000   21.161000   92.553000 H    366 GLP     0.4000 ****
1099 TO2    69.512000   25.020000   77.942000 T    367 GLP     0.6000 ****
1100 TO1    75.985000   27.349000   85.200000 T    367 GLP    -0.6000 ****
1101 HO1    82.458000   29.679000   92.458000 H    367 GLP     0.4000 ****
1102 TO2    66.705000   31.952000   77.862000 T    368 GLP     0.6000 ****
1103 TO1    72.916000   34.927000   85.112000 T    368 GLP    -0.6000 ****
1104 HO1    79.128000   37.903000   92.363000 H    368 GLP     0.4000 ****
1105 TO2    63.211000   38.566000   77.782000 T    369 GLP     0.6000 ****
1106 TO1    69.098000   42.157000   85.024000 T    369 GLP    -0.6000 ****
1107 HO1    74.984000   45.748000   92.267000 H    369 GLP     0.4000 ****
1108 TO2    59.069000   44.793000   77.701000 T    370 GLP     0.6000 ****
1109 TO1    64.569000   48.964000   84.937000 T    370 GLP    -0.6000 ****
1110 HO1    70.069000   53.135000   92.172000 H    370 GLP     0.4000 ****
1111 TO2    54.319000   50.571000   77.621000 T    371 GLP     0.6000 ****
1112 TO1    59.377000   55.280000   84.849000 T    371 GLP    -0.6000 ****
1113 HO1    64.435000   59.989000   92.077000 H    371 GLP     0.4000 ****
1114 TO2    49.012000   55.841000   77.541000 T    372 GLP     0.6000 ****
1115 TO1    53.576000   61.041000   84.761000 T    372 GLP    -0.6000 ****
1116 HO1    58.140000   66.240000   91.981000 H    372 GLP     0.4000 ****
1117 TO2    43.202000   60.551000   77.460000 T    373 GLP     0.6000 ****
1118 TO1    47.225000   66.189000   84.673000 T    373 GLP    -0.6000 ****
1119 HO1    51.248000   71.828000   91.886000 H    373 GLP     0.4000 ****
1120 TO2    36.949000   64.654000   77.380000 T    374 GLP     0.6000 ****
1121 TO1    40.389000   70.674000   84.585000 T    374 GLP    -0.6000 ****
1122 HO1    43.830000   76.695000   91.791000 H    374 GLP     0.4000 ****
1123 TO2    30.315000   68.108000   77.299000 T    375 GLP     0.6000 ****
1124 TO1    33.138000   74.450000   84.497000 T    375 GLP    -0.6000 ****
1125 HO1    35.961000   80.792000   91.695000 H    375 GLP     0.4000 ****
1126 TO2    23.369000   70.881000   77.219000 T    376 GLP     0.6000 ****
1127 TO1    25.545000   77.481000   84.410000 T    376 GLP    -0.6000 ****
1128 HO1    27.721000   84.081000   91.600000 H    376 GLP     0.4000 ****
1129 TO2    16.180000   72.944000   77.139000 T    377 GLP     0.6000 ****
1130 TO1    17.686000   79.736000   84.322000 T    377 GLP    -0.6000 ****
1131 HO1    19.193000   86.528000   91.505000 H    377 GLP     0.4000 ****
1132 TO2     8.820000   74.278000   77.058000 T    378 GLP     0.6000 ****
1133 TO1     9.641000   81.194000   84.234000 T    378 GLP    -0.6000 ****
1134 HO1    10.463000   88.111000   91.409000 H    378 GLP     0.4000 ****
1135 TO2     1.364000   74.870000   76.978000 T    379 GLP     0.6000 ****
1136 TO1     1.491000   81.841000   84.146000 T    379 GLP    -0.6000 ****
1137 HO1     1.618000   88.813000   91.314000 H    379 GLP     0.4000 ****
1138 TO2    -6.113000   74.715000   76.898000 T    380 GLP     0.6000 ****
1139 TO1    -6.683000   81.672000   84.058000 T    380 GLP    -0.6000 ****
1140 HO1    -7.252000   88.630000   91.219000 H    380 GLP     0.4000 ****
1141 TO2   -13.538000   73.816000   76.817000 T    381 GLP     0.6000 ****
1142 TO1   -14.799000   80.689000   83.970000 T    381 GLP    -0.6000 ****
1143 HO1   -16.060000   87.563000   91.123000 H    381 GLP     0.4000 ****
1144 TO2   -20.837000   72.182000   76.737000 T    382 GLP     0.6000 ****
1145 TO1   -22.777000   78.903000   83.883000 T    382 GLP    -0.6000 ****
1146 HO1   -24.717000   85.625000   91.028000 H    382 GLP     0.4000 ****
1147 TO2   -27.937000   69.830000   76.657000 T    383 GLP     0.6000 ****
1148 TO1   -30.538000   76.333000   83.795000 T    383 GLP    -0.6000 ****
1149 HO1   -33.140000   82.835000   90.933000 H    383 GLP     0.4000 ****
1150 TO2   -34.768000   66.785000   76.576000 T    384 GLP     0.6000 ****
1151 TO1   -38.005000   73.004000   83.707000 T    384 GLP    -0.6000 ****
1152 HO1   -41.243000   79.223000   90.837000 H    384 GLP     0.4000 ****
1153 TO2   -41.263000   63.077000   76.496000 T    385 GLP     0.6000 ****
1154 TO1   -45.106000   68.950000   83.619000 T    385 GLP    -0.6000 ****
1155 HO1   -48.948000   74.824000   90.742000 H    385 GLP     0.4000 ****
1156 TO2   -47.359000   58.743000   76.416000 T    386 GLP     0.6000 ****
1157 TO1   -51.769000   64.213000   83.531000 T    386 GLP    -0.6000 ****
1158 HO1   -56.179000   69.683000   90.647000 H    386 GLP     0.4000 ****
1159 TO2   -52.996000   53.827000   76.335000 T    387 GLP     0.6000 ****
1160 TO1   -57.930000   58.839000   83.443000 T    387 GLP    -0.6000 ****
1161 HO1   -62.865000   63.852000   90.551000 H    387 GLP     0.4000 ****
1162 TO2   -58.118000   48.378000   76.255000 T    388 GLP     0.6000 ****
1163 TO1   -63.530000   52.883000   83.356000 T    388 GLP    -0.6000 ****
1164 HO1   -68.942000   57.387000   90.456000 H    388 GLP     0.4000 ****
1165 TO2   -62.678000   42.449000   76.175000 T    389 GLP     0.6000 ****
1166 TO1   -68.514000   46.402000   83.268000 T    389 GLP    -0.6000 ****
1167 HO1   -74.350000   50.354000   90.361000 H    389 GLP     0.4000 ****
1168 TO2   -66.630000   36.099000   76.094000 T    390 GLP     0.6000 ****
1169 TO1   -72.834000   39.461000   83.180000 T    390 GLP    -0.6000 ****
1170 HO1   -79.038000   42.822000   90.266000 H    390 GLP     0.4000 ****
1171 TO2   -69.936000   29.391000   76.014000 T    391 GLP     0.6000 ****
1172 TO1   -76.448000   32.127000   83.092000 T    391 GLP    -0.6000 ****
1173 HO1   -82.961000   34.864000   90.170000 H    391 GLP     0.4000 ****
1174 TO2   -72.566000   22.389000   75.933000 T    392 GLP     0.6000 ****
1175 TO1   -79.323000   24.474000   83.004000 T    392 GLP    -0.6000 ****
1176 HO1   -86.080000   26.559000   90.075000 H    392 GLP     0.4000 ****
1177 TO2   -74.494000   15.163000   75.853000 T    393 GLP     0.6000 ****
1178 TO1   -81.431000   16.574000   82.916000 T    393 GLP    -0.6000 ****
1179 HO1   -88.367000   17.986000   89.980000 H    393 GLP     0.4000 ****
1180 TO2   -75.703000    7.782000   75.773000 T    394 GLP     0.6000 ****
1181 TO1   -82.752000    8.506000   82.829000 T    394 GLP    -0.6000 ****
1182 HO1   -89.801000    9.231000   89.884000 H    394 GLP     0.4000 ****
1183 TO2   -76.181000    0.318000   75.692000 T    395 GLP     0.6000 ****
1184 TO1   -83.275000    0.348000   82.741000 T    395 GLP    -0.6000 ****
1185 HO1   -90.368000    0.377000   89.789000 H    395 GLP     0.4000 ****
1186 TO2   -75.925000   -7.157000   75.612000 T    396 GLP     0.6000 ****
1187 TO1   -82.995000   -7.823000   82.653000 T    396 GLP    -0.6000 ****
1188 HO1   -90.064000   -8.490000   89.694000 H    396 GLP     0.4000 ****
1189 TO2   -74.937000  -14.571000   75.532000 T    397 GLP     0.6000 ****
1190 TO1   -81.915000  -15.927000   82.565000 T    397 GLP    -0.6000 ****
1191 HO1   -88.893000  -17.284000   89.598000 H    397 GLP     0.4000 ****
1192 TO2   -73.229000  -21.852000   75.451000 T    398 GLP     0.6000 ****
1193 TO1   -80.048000  -23.887000   82.477000 T    398 GLP    -0.6000 ****
1194 HO1   -86.867000  -25.922000   89.503000 H    398 GLP     0.4000 ****
1195 TO2   -70.818000  -28.932000   75.371000 T    399 GLP     0.6000 ****
1196 TO1   -77.412000  -31.626000   82.389000 T    399 GLP    -0.6000 ****
1197 HO1   -84.006000  -34.320000   89.408000 H    399 GLP     0.4000 ****
1198 TO2   -67.726000  -35.742000   75.291000 T    400 GLP     0.6000 ****
1199 TO1   -74.032000  -39.070000   82.302000 T    400 GLP    -0.6000 ****
1200 HO1   -80.339000  -42.398000   89.312000 H    400 GLP     0.4000 ****
1201 TO2   -63.985000  -42.218000   75.210000 T    401 GLP     0.6000 ****
1202 TO1   -69.943000  -46.149000   82.214000 T    401 GLP    -0.6000 ****
1203 HO1   -75.901000  -50.080000   89.217000 H    401 GLP     0.4000 ****
1204 TO2   -59.630000  -48.298000   75.130000 T    402 GLP     0.6000 ****
1205 TO1   -65.182000  -52.796000   82.126000 T    402 GLP    -0.6000 ****
1206 HO1   -70.735000  -57.293000   89.122000 H    402 GLP     0.4000 ****
1207 TO2   -54.704000  -53.926000   75.050000 T    403 GLP     0.6000 ****
1208 TO1   -59.798000  -58.947000   82.038000 T    403 GLP    -0.6000 ****
1209 HO1   -64.892000  -63.969000   89.026000 H    403 GLP     0.4000 ****
1210 TO2   -49.254000  -59.048000   74.969000 T    404 GLP     0.6000 ****
1211 TO1   -53.840000  -64.546000   81.950000 T    404 GLP    -0.6000 ****
1212 HO1   -58.427000  -70.045000   88.931000 H    404 GLP     0.4000 ****
1213 TO2   -43.332000  -63.616000   74.889000 T    405 GLP     0.6000 ****
1214 TO1   -47.367000  -69.540000   81.862000 T    405 GLP    -0.6000 ****
1215 HO1   -51.402000  -75.463000   88.836000 H    405 GLP     0.4000 ****
1216 TO2   -36.994000  -67.587000   74.809000 T    406 GLP     0.6000 ****
1217 TO1   -40.439000  -73.881000   81.775000 T    406 GLP    -0.6000 ****
1218 HO1   -43.884000  -80.175000   88.740000 H    406 GLP     0.4000 ****
1219 TO2   -30.302000  -70.926000   74.728000 T    407 GLP     0.6000 ****
1220 TO1   -33.123000  -77.530000   81.687000 T    407 GLP    -0.6000 ****
1221 HO1   -35.945000  -84.135000   88.645000 H    407 GLP     0.4000 ****
1222 TO2   -23.317000  -73.600000   74.648000 T    408 GLP     0.6000 ****
1223 TO1   -25.488000  -80.454000   81.599000 T    408 GLP    -0.6000 ****
1224 HO1   -27.660000  -87.307000   88.550000 H    408 GLP     0.4000 ****
1225 TO2   -16.107000  -75.586000   74.567000 T    409 GLP     0.6000 ****
1226 TO1   -17.606000  -82.624000   81.511000 T    409 GLP    -0.6000 ****
1227 HO1   -19.106000  -89.663000   88.455000 H    409 GLP     0.4000 ****
1228 TO2    -8.738000  -76.865000   74.487000 T    410 GLP     0.6000 ****
1229 TO1    -9.552000  -84.023000   81.423000 T    410 GLP    -0.6000 ****
1230 HO1   -10.365000  -91.180000   88.359000 H    410 GLP     0.4000 ****
1231 TO2    -1.280000  -77.427000   74.407000 T    411 GLP     0.6000 ****
1232 TO1    -1.399000  -84.637000   81.335000 T    411 GLP    -0.6000 ****
1233 HO1    -1.518000  -91.847000   88.264000 H    411 GLP     0.4000 ****
1234 TO2     6.197000  -77.267000   74.326000 T    412 GLP     0.6000 ****
1235 TO1     6.774000  -84.462000   81.247000 T    412 GLP    -0.6000 ****
1236 HO1     7.351000  -91.656000   88.169000 H    412 GLP     0.4000 ****
1237 TO2    13.624000  -76.386000   74.246000 T    413 GLP     0.6000 ****
1238 TO1    14.893000  -83.499000   81.160000 T    413 GLP    -0.6000 ****
1239 HO1    16.162000  -90.612000   88.073000 H    413 GLP     0.4000 ****
1240 TO2    20.932000  -74.795000   74.166000 T    414 GLP     0.6000 ****
1241 TO1    22.881000  -81.759000   81.072000 T    414 GLP    -0.6000 ****
1242 HO1    24.830000  -88.724000   87.978000 H    414 GLP     0.4000 ****
1243 TO2    28.053000  -72.508000   74.085000 T    415 GLP     0.6000 ****
1244 TO1    30.665000  -79.259000   80.984000 T    415 GLP    -0.6000 ****
1245 HO1    33.277000  -86.011000   87.883000 H    415 GLP     0.4000 ****
1246 TO2    34.921000  -69.547000   74.005000 T    416 GLP     0.6000 ****
1247 TO1    38.172000  -76.023000   80.896000 T    416 GLP    -0.6000 ****
1248 HO1    41.424000  -82.499000   87.787000 H    416 GLP     0.4000 ****
1249 TO2    41.473000  -65.940000   73.925000 T    417 GLP     0.6000 ****
1250 TO1    45.334000  -72.081000   80.808000 T    417 GLP    -0.6000 ****
1251 HO1    49.196000  -78.221000   87.692000 H    417 GLP     0.4000 ****
1252 TO2    47.648000  -61.722000   73.844000 T    418 GLP     0.6000 ****
1253 TO1    52.085000  -67.469000   80.720000 T    418 GLP    -0.6000 ****
1254 HO1    56.522000  -73.217000   87.597000 H    418 GLP     0.4000 ****
1255 TO2    53.392000  -56.931000   73.764000 T    419 GLP     0.6000 ****
1256 TO1    58.363000  -62.233000   80.633000 T    419 GLP    -0.6000 ****
1257 HO1    63.335000  -67.534000   87.501000 H    419 GLP     0.4000 ****
1258 TO2    58.650000  -51.613000   73.684000 T    420 GLP     0.6000 ****
1259 TO1    64.111000  -56.419000   80.545000 T    420 GLP    -0.6000 ****
1260 HO1    69.572000  -61.225000   87.406000 H    420 GLP     0.4000 ****
1261 TO2    63.375000  -45.816000   73.603000 T    421 GLP     0.6000 ****
1262 TO1    69.277000  -50.082000   80.457000 T    421 GLP    -0.6000 ****
1263 HO1    75.178000  -54.348000   87.311000 H    421 GLP     0.4000 ****
1264 TO2    67.525000  -39.594000   73.523000 T    422 GLP     0.6000 ****
1265 TO1    73.813000  -43.281000   80.369000 T    422 GLP    -0.6000 ****
1266 HO1    80.101000  -46.968000   87.215000 H    422 GLP     0.4000 ****
1267 TO2    71.062000  -33.004000   73.443000 T    423 GLP     0.6000 ****
1268 TO1    77.680000  -36.078000   80.281000 T    423 GLP    -0.6000 ****
1269 HO1    84.297000  -39.151000   87.120000 H    423 GLP     0.4000 ****
1270 TO2    73.955000  -26.108000   73.362000 T    424 GLP     0.6000 ****
1271 TO1    80.842000  -28.539000   80.193000 T    424 GLP    -0.6000 ****
1272 HO1    87.728000  -30.970000   87.025000 H    424 GLP     0.4000 ****
1273 TO2    76.177000  -18.966000   73.282000 T    425 GLP     0.6000 ****
1274 TO1    83.271000  -20.733000   80.106000 T    425 GLP    -0.6000 ****
1275 HO1    90.364000  -22.499000   86.929000 H    425 GLP     0.4000 ****
1276 TO2    77.710000  -11.646000   73.201000 T    426 GLP     0.6000 ****
1277 TO1    84.946000  -12.731000   80.018000 T    426 GLP    -0.6000 ****
1278 HO1    92.182000  -13.815000   86.834000 H    426 GLP     0.4000 ****
1279 TO2    78.540000   -4.214000   73.121000 T    427 GLP     0.6000 ****
1280 TO1    85.853000   -4.606000   79.930000 T    427 GLP    -0.6000 ****
1281 HO1    93.167000   -4.998000   86.739000 H    427 GLP     0.4000 ****
1282 TO2    78.660000    3.264000   73.041000 T    428 GLP     0.6000 ****
1283 TO1    85.984000    3.568000   79.842000 T    428 GLP    -0.6000 ****
1284 HO1    93.309000    3.872000   86.643000 H    428 GLP     0.4000 ****
1285 TO2    78.069000   10.720000   72.960000 T    429 GLP     0.6000 ****
1286 TO1    85.339000   11.718000   79.754000 T    429 GLP    -0.6000 ****
1287 HO1    92.609000   12.716000   86.548000 H    429 GLP     0.4000 ****
1288 TO2    76.775000   18.086000   72.880000 T    430 GLP     0.6000 ****
1289 TO1    83.924000   19.770000   79.666000 T    430 GLP    -0.6000 ****
1290 HO1    91.073000   21.454000   86.453000 H    430 GLP     0.4000 ****
1291 TO2    74.788000   25.296000   72.800000 T    431 GLP     0.6000 ****
1292 TO1    81.752000   27.652000   79.579000 T    431 GLP    -0.6000 ****
1293 HO1    88.716000   30.007000   86.358000 H    431 GLP     0.4000 ****
1294 TO2    72.128000   32.286000   72.719000 T    432 GLP     0.6000 ****
1295 TO1    78.845000   35.292000   79.491000 T    432 GLP    -0.6000 ****
1296 HO1    85.561000   38.299000   86.262000 H    432 GLP     0.4000 ****
1297 TO2    68.819000   38.993000   72.639000 T    433 GLP     0.6000 ****
1298 TO1    75.227000   42.624000   79.403000 T    433 GLP    -0.6000 ****
1299 HO1    81.636000   46.255000   86.167000 H    433 GLP     0.4000 ****
1300 TO2    64.892000   45.357000   72.559000 T    434 GLP     0.6000 ****
1301 TO1    70.934000   49.581000   79.315000 T    434 GLP    -0.6000 ****
1302 HO1    76.977000   53.805000   86.072000 H    434 GLP     0.4000 ****
1303 TO2    60.381000   51.323000   72.478000 T    435 GLP     0.6000 ****
1304 TO1    66.003000   56.102000   79.227000 T    435 GLP    -0.6000 ****
1305 HO1    71.626000   60.881000   85.976000 H    435 GLP     0.4000 ****
1306 TO2    55.328000   56.836000   72.398000 T    436 GLP     0.6000 ****
1307 TO1    60.479000   62.129000   79.139000 T    436 GLP    -0.6000 ****
1308 HO1    65.631000   67.421000   85.881000 H    436 GLP     0.4000 ****
1309 TO2    49.777000   61.849000   72.318000 T    437 GLP     0.6000 ****
1310 TO1    54.413000   67.608000   79.052000 T    437 GLP    -0.6000 ****
1311 HO1    59.048000   73.368000   85.786000 H    437 GLP     0.4000 ****
1312 TO2    43.780000   66.318000   72.237000 T    438 GLP     0.6000 ****
1313 TO1    47.857000   72.493000   78.964000 T    438 GLP    -0.6000 ****
1314 HO1    51.934000   78.668000   85.690000 H    438 GLP     0.4000 ****
1315 TO2    37.390000   70.202000   72.157000 T    439 GLP     0.6000 ****
1316 TO1    40.871000   76.739000   78.876000 T    439 GLP    -0.6000 ****
1317 HO1    44.353000   83.276000   85.595000 H    439 GLP     0.4000 ****
1318 TO2    30.662000   73.470000   72.077000 T    440 GLP     0.6000 ****
1319 TO1    33.517000   80.311000   78.788000 T    440 GLP    -0.6000 ****
1320 HO1    36.372000   87.152000   85.500000 H    440 GLP     0.4000 ****
1321 TO2    23.658000   76.091000   71.996000 T    441 GLP     0.6000 ****
1322 TO1    25.861000   83.176000   78.700000 T    441 GLP    -0.6000 ****
1323 HO1    28.064000   90.262000   85.404000 H    441 GLP     0.4000 ****
1324 TO2    16.438000   78.044000   71.916000 T    442 GLP     0.6000 ****
1325 TO1    17.969000   85.311000   78.612000 T    442 GLP    -0.6000 ****
1326 HO1    19.500000   92.578000   85.309000 H    442 GLP     0.4000 ****
1327 TO2     9.068000   79.312000   71.835000 T    443 GLP     0.6000 ****
1328 TO1     9.912000   86.697000   78.525000 T    443 GLP    -0.6000 ****
1329 HO1    10.757000   94.083000   85.214000 H    443 GLP     0.4000 ****
1330 TO2     1.611000   79.885000   71.755000 T    444 GLP     0.6000 ****
1331 TO1     1.761000   87.323000   78.437000 T    444 GLP    -0.6000 ****
1332 HO1     1.911000   94.762000   85.118000 H    444 GLP     0.4000 ****
1333 TO2    -5.867000   79.758000   71.675000 T    445 GLP     0.6000 ****
1334 TO1    -6.413000   87.184000   78.349000 T    445 GLP    -0.6000 ****
1335 HO1    -6.959000   94.611000   85.023000 H    445 GLP     0.4000 ****
1336 TO2   -13.300000   78.932000   71.594000 T    446 GLP     0.6000 ****
1337 TO1   -14.538000   86.282000   78.261000 T    446 GLP    -0.6000 ****
1338 HO1   -15.777000   93.632000   84.928000 H    446 GLP     0.4000 ****
1339 TO2   -20.623000   77.417000   71.514000 T    447 GLP     0.6000 ****
1340 TO1   -22.544000   84.626000   78.173000 T    447 GLP    -0.6000 ****
1341 HO1   -24.464000   91.835000   84.832000 H    447 GLP     0.4000 ****
1342 TO2   -27.774000   75.225000   71.434000 T    448 GLP     0.6000 ****
1343 TO1   -30.360000   82.230000   78.085000 T    448 GLP    -0.6000 ****
1344 HO1   -32.946000   89.235000   84.737000 H    448 GLP     0.4000 ****
1345 TO2   -34.689000   72.376000   71.353000 T    449 GLP     0.6000 ****
1346 TO1   -37.919000   79.116000   77.998000 T    449 GLP    -0.6000 ****
1347 HO1   -41.149000   85.855000   84.642000 H    449 GLP     0.4000 ****
1348 TO2   -41.308000   68.897000   71.273000 T    450 GLP     0.6000 ****
1349 TO1   -45.155000   75.312000   77.910000 T    450 GLP    -0.6000 ****
1350 HO1   -49.002000   81.727000   84.546000 H    450 GLP     0.4000 ****
1351 TO2   -47.576000   64.816000   71.193000 T    451 GLP     0.6000 ****
1352 TO1   -52.006000   70.851000   77.822000 T    451 GLP    -0.6000 ****
1353 HO1   -56.436000   76.887000   84.451000 H    451 GLP     0.4000 ****
1354 TO2   -53.437000   60.171000   71.112000 T    452 GLP     0.6000 ****
1355 TO1   -58.413000   65.773000   77.734000 T    452 GLP    -0.6000 ****
1356 HO1   -63.389000   71.376000   84.356000 H    452 GLP     0.4000 ****
1357 TO2   -58.841000   55.001000   71.032000 T    453 GLP     0.6000 ****
1358 TO1   -64.321000   60.123000   77.646000 T    453 GLP    -0.6000 ****
1359 HO1   -69.800000   65.244000   84.261000 H    453 GLP     0.4000 ****
1360 TO2   -63.743000   49.353000   70.952000 T    454 GLP     0.6000 ****
1361 TO1   -69.679000   53.948000   77.558000 T    454 GLP    -0.6000 ****
1362 HO1   -75.614000   58.544000   84.165000 H    454 GLP     0.4000 ****
1363 TO2   -68.100000   43.274000   70.871000 T    455 GLP     0.6000 ****
1364 TO1   -74.441000   47.304000   77.471000 T    455 GLP    -0.6000 ****
1365 HO1   -80.782000   51.333000   84.070000 H    455 GLP     0.4000 ****
1366 TO2   -71.875000   36.818000   70.791000 T    456 GLP     0.6000 ****
1367 TO1   -78.568000   40.247000   77.383000 T    456 GLP    -0.6000 ****
1368 HO1   -85.261000   43.675000   83.975000 H    456 GLP     0.4000 ****
1369 TO2   -75.037000   30.041000   70.711000 T    457 GLP     0.6000 ****
1370 TO1   -82.024000   32.838000   77.295000 T    457 GLP    -0.6000 ****
1371 HO1   -89.011000   35.635000   83.879000 H    457 GLP     0.4000 ****
1372 TO2   -77.559000   23.000000   70.630000 T    458 GLP     0.6000 ****
1373 TO1   -84.781000   25.142000   77.207000 T    458 GLP    -0.6000 ****
1374 HO1   -92.003000   27.283000   83.784000 H    458 GLP     0.4000 ****
1375 TO2   -79.419000   15.756000   70.550000 T    459 GLP     0.6000 ****
1376 TO1   -86.815000   17.224000   77.119000 T    459 GLP    -0.6000 ****
1377 HO1   -94.210000   18.691000   83.689000 H    459 GLP     0.4000 ****
1378 TO2   -80.604000    8.372000   70.469000 T    460 GLP     0.6000 ****
1379 TO1   -88.109000    9.152000   77.031000 T    460 GLP    -0.6000 ****
1380 HO1   -95.615000    9.931000   83.593000 H    460 GLP     0.4000 ****
1381 TO2   -81.102000    0.910000   70.389000 T    461 GLP     0.6000 ****
1382 TO1   -88.654000    0.995000   76.944000 T    461 GLP    -0.6000 ****
1383 HO1   -96.206000    1.079000   83.498000 H    461 GLP     0.4000 ****
1384 TO2   -80.911000   -6.566000   70.309000 T    462 GLP     0.6000 ****
1385 TO1   -88.445000   -7.178000   76.856000 T    462 GLP    -0.6000 ****
1386 HO1   -95.979000   -7.789000   83.403000 H    462 GLP     0.4000 ****
1387 TO2   -80.032000  -13.993000   70.228000 T    463 GLP     0.6000 ****
1388 TO1   -87.484000  -15.296000   76.768000 T    463 GLP    -0.6000 ****
1389 HO1   -94.937000  -16.599000   83.307000 H    463 GLP     0.4000 ****
1390 TO2   -78.474000  -21.308000   70.148000 T    464 GLP     0.6000 ****
1391 TO1   -85.781000  -23.292000   76.680000 T    464 GLP    -0.6000 ****
1392 HO1   -93.089000  -25.276000   83.212000 H    464 GLP     0.4000 ****
1393 TO2   -76.251000  -28.448000   70.068000 T    465 GLP     0.6000 ****
1394 TO1   -83.351000  -31.097000   76.592000 T    465 GLP    -0.6000 ****
1395 HO1   -90.451000  -33.746000   83.117000 H    465 GLP     0.4000 ****
1396 TO2   -73.381000  -35.355000   69.987000 T    466 GLP     0.6000 ****
1397 TO1   -80.214000  -38.647000   76.504000 T    466 GLP    -0.6000 ****
1398 HO1   -87.047000  -41.939000   83.021000 H    466 GLP     0.4000 ****
1399 TO2   -69.890000  -41.968000   69.907000 T    467 GLP     0.6000 ****
1400 TO1   -76.398000  -45.876000   76.417000 T    467 GLP    -0.6000 ****
1401 HO1   -82.906000  -49.784000   82.926000 H    467 GLP     0.4000 ****
1402 TO2   -65.808000  -48.234000   69.827000 T    468 GLP     0.6000 ****
1403 TO1   -71.935000  -52.726000   76.329000 T    468 GLP    -0.6000 ****
1404 HO1   -78.063000  -57.217000   82.831000 H    468 GLP     0.4000 ****
1405 TO2   -61.168000  -54.100000   69.746000 T    469 GLP     0.6000 ****
1406 TO1   -66.864000  -59.138000   76.241000 T    469 GLP    -0.6000 ****
1407 HO1   -72.560000  -64.176000   82.735000 H    469 GLP     0.4000 ****
1408 TO2   -56.012000  -59.517000   69.666000 T    470 GLP     0.6000 ****
1409 TO1   -61.228000  -65.059000   76.153000 T    470 GLP    -0.6000 ****
1410 HO1   -66.443000  -70.601000   82.640000 H    470 GLP     0.4000 ****
1411 TO2   -50.382000  -64.440000   69.586000 T    471 GLP     0.6000 ****
1412 TO1   -55.073000  -70.440000   76.065000 T    471 GLP    -0.6000 ****
1413 HO1   -59.765000  -76.441000   82.545000 H    471 GLP     0.4000 ****
1414 TO2   -44.326000  -68.827000   69.505000 T    472 GLP     0.6000 ****
1415 TO1   -48.453000  -75.236000   75.977000 T    472 GLP    -0.6000 ****
1416 HO1   -52.581000  -81.645000   82.450000 H    472 GLP     0.4000 ****
1417 TO2   -37.894000  -72.644000   69.425000 T    473 GLP     0.6000 ****
1418 TO1   -41.423000  -79.408000   75.890000 T    473 GLP    -0.6000 ****
1419 HO1   -44.952000  -86.173000   82.354000 H    473 GLP     0.4000 ****
1420 TO2   -31.142000  -75.858000   69.345000 T    474 GLP     0.6000 ****
1421 TO1   -34.042000  -82.922000   75.802000 T    474 GLP    -0.6000 ****
1422 HO1   -36.941000  -89.986000   82.259000 H    474 GLP     0.4000 ****
1423 TO2   -24.124000  -78.444000   69.264000 T    475 GLP     0.6000 ****
1424 TO1   -26.371000  -85.748000   75.714000 T    475 GLP    -0.6000 ****
1425 HO1   -28.617000  -93.053000   82.164000 H    475 GLP     0.4000 ****
1426 TO2   -16.901000  -80.380000   69.184000 T    476 GLP     0.6000 ****
1427 TO1   -18.474000  -87.865000   75.626000 T    476 GLP    -0.6000 ****
1428 HO1   -20.048000  -95.349000   82.068000 H    476 GLP     0.4000 ****
1429 TO2    -9.531000  -81.651000   69.103000 T    477 GLP     0.6000 ****
1430 TO1   -10.418000  -89.254000   75.538000 T    477 GLP    -0.6000 ****
1431 HO1   -11.306000  -96.857000   81.973000 H    477 GLP     0.4000 ****
1432 TO2    -2.076000  -82.246000   69.023000 T    478 GLP     0.6000 ****
1433 TO1    -2.269000  -89.905000   75.450000 T    478 GLP    -0.6000 ****
1434 HO1    -2.463000  -97.563000   81.878000 H    478 GLP     0.4000 ****
1435 TO2     5.402000  -82.162000   68.943000 T    479 GLP     0.6000 ****
1436 TO1     5.905000  -89.813000   75.363000 T    479 GLP    -0.6000 ****
1437 HO1     6.408000  -97.464000   81.782000 H    479 GLP     0.4000 ****
1438 TO2    12.842000  -81.400000   68.862000 T    480 GLP     0.6000 ****
1439 TO1    14.038000  -88.980000   75.275000 T    480 GLP    -0.6000 ****
1440 HO1    15.233000  -96.560000   81.687000 H    480 GLP     0.4000 ****
1441 TO2    20.182000  -79.967000   68.782000 T    481 GLP     0.6000 ****
1442 TO1    22.061000  -87.413000   75.187000 T    481 GLP    -0.6000 ****
1443 HO1    23.940000  -94.859000   81.592000 H    481 GLP     0.4000 ****
1444 TO2    27.361000  -77.874000   68.702000 T    482 GLP     0.6000 ****
1445 TO1    29.909000  -85.126000   75.099000 T    482 GLP    -0.6000 ****
1446 HO1    32.457000  -92.377000   81.496000 H    482 GLP     0.4000 ****
1447 TO2    34.322000  -75.140000   68.621000 T    483 GLP     0.6000 ****
1448 TO1    37.518000  -82.137000   75.011000 T    483 GLP    -0.6000 ****
1449 HO1    40.714000  -89.134000   81.401000 H    483 GLP     0.4000 ****
1450 TO2    41.007000  -71.788000   68.541000 T    484 GLP     0.6000 ****
1451 TO1    44.826000  -78.472000   74.923000 T    484 GLP    -0.6000 ****
1452 HO1    48.644000  -85.157000   81.306000 H    484 GLP     0.4000 ****
1453 TO2    47.362000  -67.845000   68.461000 T    485 GLP     0.6000 ****
1454 TO1    51.772000  -74.162000   74.836000 T    485 GLP    -0.6000 ****
1455 HO1    56.183000  -80.480000   81.210000 H    485 GLP     0.4000 ****
1456 TO2    53.335000  -63.344000   68.380000 T    486 GLP     0.6000 ****
1457 TO1    58.301000  -69.243000   74.748000 T    486 GLP    -0.6000 ****
1458 HO1    63.268000  -75.141000   81.115000 H    486 GLP     0.4000 ****
1459 TO2    58.877000  -58.323000   68.300000 T    487 GLP     0.6000 ****
1460 TO1    64.359000  -63.754000   74.660000 T    487 GLP    -0.6000 ****
1461 HO1    69.842000  -69.185000   81.020000 H    487 GLP     0.4000 ****
1462 TO2    63.944000  -52.823000   68.220000 T    488 GLP     0.6000 ****
1463 TO1    69.898000  -57.741000   74.572000 T    488 GLP    -0.6000 ****
1464 HO1    75.852000  -62.660000   80.924000 H    488 GLP     0.4000 ****
1465 TO2    68.495000  -46.888000   68.139000 T    489 GLP     0.6000 ****
1466 TO1    74.873000  -51.254000   74.484000 T    489 GLP    -0.6000 ****
1467 HO1    81.251000  -55.620000   80.829000 H    489 GLP     0.4000 ****
1468 TO2    72.493000  -40.568000   68.059000 T    490 GLP     0.6000 ****
1469 TO1    79.243000  -44.345000   74.396000 T    490 GLP    -0.6000 ****
1470 HO1    85.993000  -48.123000   80.734000 H    490 GLP     0.4000 ****
1471 TO2    75.906000  -33.914000   67.979000 T    491 GLP     0.6000 ****
1472 TO1    82.974000  -37.072000   74.309000 T    491 GLP    -0.6000 ****
1473 HO1    90.042000  -40.230000   80.638000 H    491 GLP     0.4000 ****
1474 TO2    78.708000  -26.980000   67.898000 T    492 GLP     0.6000 ****
1475 TO1    86.037000  -29.492000   74.221000 T    492 GLP    -0.6000 ****
1476 HO1    93.366000  -32.004000   80.543000 H    492 GLP     0.4000 ****
1477 TO2    80.875000  -19.822000   67.818000 T    493 GLP     0.6000 ****
1478 TO1    88.406000  -21.668000   74.133000 T    493 GLP    -0.6000 ****
1479 HO1    95.937000  -23.514000   80.448000 H    493 GLP     0.4000 ****
1480 TO2    82.392000  -12.499000   67.737000 T    494 GLP     0.6000 ****
1481 TO1    90.064000  -13.663000   74.045000 T    494 GLP    -0.6000 ****
1482 HO1    97.736000  -14.827000   80.353000 H    494 GLP     0.4000 ****
1483 TO2    83.245000   -5.070000   67.657000 T    495 GLP     0.6000 ****
1484 TO1    90.997000   -5.542000   73.957000 T    495 GLP    -0.6000 ****
1485 HO1    98.748000   -6.014000   80.257000 H    495 GLP     0.4000 ****
1486 TO2    83.430000    2.407000   67.577000 T    496 GLP     0.6000 ****
1487 TO1    91.199000    2.631000   73.869000 T    496 GLP    -0.6000 ****
1488 HO1    98.967000    2.855000   80.162000 H    496 GLP     0.4000 ****
1489 TO2    82.945000    9.869000   67.496000 T    497 GLP     0.6000 ****
1490 TO1    90.668000   10.788000   73.782000 T    497 GLP    -0.6000 ****
1491 HO1    98.392000   11.707000   80.067000 H    497 GLP     0.4000 ****
1492 TO2    81.793000   17.259000   67.416000 T    498 GLP     0.6000 ****
1493 TO1    89.410000   18.866000   73.694000 T    498 GLP    -0.6000 ****
1494 HO1    97.026000   20.473000   79.971000 H    498 GLP     0.4000 ****
1495 TO2    79.987000   24.516000   67.336000 T    499 GLP     0.6000 ****
1496 TO1    87.435000   26.798000   73.606000 T    499 GLP    -0.6000 ****
1497 HO1    94.883000   29.081000   79.876000 H    499 GLP     0.4000 ****
1498 TO2    77.539000   31.582000   67.255000 T    500 GLP     0.6000 ****
1499 TO1    84.759000   34.523000   73.518000 T    500 GLP    -0.6000 ****
1500 HO1    91.979000   37.464000   79.781000 H    500 GLP     0.4000 ****
1501 TO2    74.470000   38.402000   67.175000 T    501 GLP     0.6000 ****
1502 TO1    81.404000   41.978000   73.430000 T    501 GLP    -0.6000 ****
1503 HO1    88.339000   45.554000   79.685000 H    501 GLP     0.4000 ****
1504 TO2    70.805000   44.921000   67.095000 T    502 GLP     0.6000 ****
1505 TO1    77.398000   49.104000   73.342000 T    502 GLP    -0.6000 ****
1506 HO1    83.992000   53.287000   79.590000 H    502 GLP     0.4000 ****
1507 TO2    66.574000   51.087000   67.014000 T    503 GLP     0.6000 ****
1508 TO1    72.773000   55.845000   73.254000 T    503 GLP    -0.6000 ****
1509 HO1    78.973000   60.602000   79.495000 H    503 GLP     0.4000 ****
1510 TO2    61.811000   56.853000   66.934000 T    504 GLP     0.6000 ****
1511 TO1    67.567000   62.147000   73.167000 T    504 GLP    -0.6000 ****
1512 HO1    73.322000   67.441000   79.399000 H    504 GLP     0.4000 ****
1513 TO2    56.553000   62.171000   66.854000 T    505 GLP     0.6000 ****
1514 TO1    61.820000   67.960000   73.079000 T    505 GLP    -0.6000 ****
1515 HO1    67.086000   73.750000   79.304000 H    505 GLP     0.4000 ****
1516 TO2    50.844000   67.001000   66.773000 T    506 GLP     0.6000 ****
1517 TO1    55.579000   73.240000   72.991000 T    506 GLP    -0.6000 ****
1518 HO1    60.313000   79.479000   79.209000 H    506 GLP     0.4000 ****
1519 TO2    44.728000   71.305000   66.693000 T    507 GLP     0.6000 ****
1520 TO1    48.893000   77.945000   72.903000 T    507 GLP    -0.6000 ****
1521 HO1    53.058000   84.585000   79.113000 H    507 GLP     0.4000 ****
1522 TO2    38.254000   75.049000   66.613000 T    508 GLP     0.6000 ****
1523 TO1    41.816000   82.037000   72.815000 T    508 GLP    -0.6000 ****
1524 HO1    45.379000   89.026000   79.018000 H    508 GLP     0.4000 ****
1525 TO2    31.474000   78.204000   66.532000 T    509 GLP     0.6000 ****
1526 TO1    34.405000   85.486000   72.727000 T    509 GLP    -0.6000 ****
1527 HO1    37.335000   92.768000   78.923000 H    509 GLP     0.4000 ****
1528 TO2    24.441000   80.745000   66.452000 T    510 GLP     0.6000 ****
1529 TO1    26.716000   88.264000   72.640000 T    510 GLP    -0.6000 ****
1530 HO1    28.992000   95.783000   78.827000 H    510 GLP     0.4000 ****
1531 TO2    17.210000   82.654000   66.371000 T    511 GLP     0.6000 ****
1532 TO1    18.812000   90.350000   72.552000 T    511 GLP    -0.6000 ****
1533 HO1    20.415000   98.047000   78.732000 H    511 GLP     0.4000 ****
1534 TO2     9.838000   83.915000   66.291000 T    512 GLP     0.6000 ****
1535 TO1    10.755000   91.728000   72.464000 T    512 GLP    -0.6000 ****
1536 HO1    11.671000   99.542000   78.637000 H    512 GLP     0.4000 ****
1537 TO2     2.384000   84.519000   66.211000 T    513 GLP     0.6000 ****
1538 TO1     2.606000   92.389000   72.376000 T    513 GLP    -0.6000 ****
1539 HO1     2.829000  100.259000   78.542000 H    513 GLP     0.4000 ****
1540 TO2    -5.094000   84.462000   66.130000 T    514 GLP     0.6000 ****
1541 TO1    -5.568000   92.327000   72.288000 T    514 GLP    -0.6000 ****
1542 HO1    -6.042000  100.191000   78.446000 H    514 GLP     0.4000 ****
1543 TO2   -12.538000   83.745000   66.050000 T    515 GLP     0.6000 ****
1544 TO1   -13.705000   91.543000   72.200000 T    515 GLP    -0.6000 ****
1545 HO1   -14.873000   99.341000   78.351000 H    515 GLP     0.4000 ****
1546 TO2   -19.889000   82.373000   65.970000 T    516 GLP     0.6000 ****
1547 TO1   -21.741000   90.044000   72.113000 T    516 GLP    -0.6000 ****
1548 HO1   -23.593000   97.714000   78.256000 H    516 GLP     0.4000 ****
1549 TO2   -27.091000   80.359000   65.889000 T    517 GLP     0.6000 ****
1550 TO1   -29.614000   87.842000   72.025000 T    517 GLP    -0.6000 ****
1551 HO1   -32.137000   95.325000   78.160000 H    517 GLP     0.4000 ****
1552 TO2   -34.088000   77.718000   65.809000 T    518 GLP     0.6000 ****
1553 TO1   -37.262000   84.955000   71.937000 T    518 GLP    -0.6000 ****
1554 HO1   -40.436000   92.192000   78.065000 H    518 GLP     0.4000 ****
1555 TO2   -40.825000   74.472000   65.729000 T    519 GLP     0.6000 ****
1556 TO1   -44.626000   81.406000   71.849000 T    519 GLP    -0.6000 ****
1557 HO1   -48.428000   88.341000   77.970000 H    519 GLP     0.4000 ****
1558 TO2   -47.250000   70.645000   65.648000 T    520 GLP     0.6000 ****
1559 TO1   -51.650000   77.223000   71.761000 T    520 GLP    -0.6000 ****
1560 HO1   -56.049000   83.802000   77.874000 H    520 GLP     0.4000 ****
1561 TO2   -53.314000   66.268000   65.568000 T    521 GLP     0.6000 ****
1562 TO1   -58.278000   72.439000   71.673000 T    521 GLP    -0.6000 ****
1563 HO1   -63.242000   78.610000   77.779000 H    521 GLP     0.4000 ****
1564 TO2   -58.969000   61.375000   65.488000 T    522 GLP     0.6000 ****
1565 TO1   -64.460000   67.091000   71.586000 T    522 GLP    -0.6000 ****
1566 HO1   -69.952000   72.806000   77.684000 H    522 GLP     0.4000 ****
1567 TO2   -64.174000   56.005000   65.407000 T    523 GLP     0.6000 ****
1568 TO1   -70.149000   61.220000   71.498000 T    523 GLP    -0.6000 ****
1569 HO1   -76.125000   66.435000   77.588000 H    523 GLP     0.4000 ****
1570 TO2   -68.887000   50.199000   65.327000 T    524 GLP     0.6000 ****
1571 TO1   -75.302000   54.873000   71.410000 T    524 GLP    -0.6000 ****
1572 HO1   -81.716000   59.548000   77.493000 H    524 GLP     0.4000 ****
1573 TO2   -73.073000   44.002000   65.247000 T    525 GLP     0.6000 ****
1574 TO1   -79.877000   48.099000   71.322000 T    525 GLP    -0.6000 ****
1575 HO1   -86.682000   52.197000   77.398000 H    525 GLP     0.4000 ****
1576 TO2   -76.700000   37.462000   65.166000 T    526 GLP     0.6000 ****
1577 TO1   -83.842000   40.951000   71.234000 T    526 GLP    -0.6000 ****
1578 HO1   -90.984000   44.439000   77.302000 H    526 GLP     0.4000 ****
1579 TO2   -79.741000   30.630000   65.086000 T    527 GLP     0.6000 ****
1580 TO1   -87.166000   33.482000   71.146000 T    527 GLP    -0.6000 ****
1581 HO1   -94.591000   36.334000   77.207000 H    527 GLP     0.4000 ****
1582 TO2   -82.172000   23.558000   65.005000 T    528 GLP     0.6000 ****
1583 TO1   -89.824000   25.752000   71.059000 T    528 GLP    -0.6000 ****
1584 HO1   -97.476000   27.945000   77.112000 H    528 GLP     0.4000 ****
1585 TO2   -83.976000   16.300000   64.925000 T    529 GLP     0.6000 ****
1586 TO1   -91.796000   17.818000   70.971000 T    529 GLP    -0.6000 ****
1587 HO1   -99.615000   19.336000   77.016000 H    529 GLP     0.4000 ****
1588 TO2   -85.139000    8.913000   64.845000 T    530 GLP     0.6000 ****
1589 TO1   -93.067000    9.743000   70.883000 T    530 GLP    -0.6000 ****
1590 HO1  -100.995000   10.573000   76.921000 H    530 GLP     0.4000 ****
1591 TO2   -85.653000    1.452000   64.764000 T    531 GLP     0.6000 ****
1592 TO1   -93.629000    1.588000   70.795000 T    531 GLP    -0.6000 ****
1593 HO1  -101.604000    1.723000   76.826000 H    531 GLP     0.4000 ****
1594 TO2   -85.514000   -6.025000   64.684000 T    532 GLP     0.6000 ****
1595 TO1   -93.477000   -6.586000   70.707000 T    532 GLP    -0.6000 ****
1596 HO1  -101.440000   -7.147000   76.730000 H    532 GLP     0.4000 ****
1597 TO2   -84.724000  -13.461000   64.604000 T    533 GLP     0.6000 ****
1598 TO1   -92.613000  -14.715000   70.619000 T    533 GLP    -0.6000 ****
1599 HO1  -100.502000  -15.968000   76.635000 H    533 GLP     0.4000 ****
1600 TO2   -83.289000  -20.800000   64.523000 T    534 GLP     0.6000 ****
1601 TO1   -91.045000  -22.737000   70.532000 T    534 GLP    -0.6000 ****
1602 HO1   -98.800000  -24.674000   76.540000 H    534 GLP     0.4000 ****
1603 TO2   -81.221000  -27.987000   64.443000 T    535 GLP     0.6000 ****
1604 TO1   -88.784000  -30.593000   70.444000 T    535 GLP    -0.6000 ****
1605 HO1   -96.347000  -33.199000   76.445000 H    535 GLP     0.4000 ****
1606 TO2   -78.535000  -34.966000   64.363000 T    536 GLP     0.6000 ****
1607 TO1   -85.848000  -38.222000   70.356000 T    536 GLP    -0.6000 ****
1608 HO1   -93.161000  -41.478000   76.349000 H    536 GLP     0.4000 ****
1609 TO2   -75.253000  -41.686000   64.282000 T    537 GLP     0.6000 ****
1610 TO1   -82.260000  -45.568000   70.268000 T    537 GLP    -0.6000 ****
1611 HO1   -89.268000  -49.449000   76.254000 H    537 GLP     0.4000 ****
1612 TO2   -71.400000  -48.095000   64.202000 T    538 GLP     0.6000 ****
1613 TO1   -78.048000  -52.574000   70.180000 T    538 GLP    -0.6000 ****
1614 HO1   -84.697000  -57.052000   76.159000 H    538 GLP     0.4000 ****
1615 TO2   -67.005000  -54.146000   64.122000 T    539 GLP     0.6000 ****
1616 TO1   -73.244000  -59.188000   70.092000 T    539 GLP    -0.6000 ****
1617 HO1   -79.483000  -64.229000   76.063000 H    539 GLP     0.4000 ****
1618 TO2   -62.101000  -59.792000   64.041000 T    540 GLP     0.6000 ****
1619 TO1   -67.884000  -65.360000   70.005000 T    540 GLP    -0.6000 ****
1620 HO1   -73.667000  -70.927000   75.968000 H    540 GLP     0.4000 ****
1621 TO2   -56.727000  -64.992000   63.961000 T    541 GLP     0.6000 ****
1622 TO1   -62.009000  -71.044000   69.917000 T    541 GLP    -0.6000 ****
1623 HO1   -67.292000  -77.096000   75.873000 H    541 GLP     0.4000 ****
1624 TO2   -50.923000  -69.707000   63.881000 T    542 GLP     0.6000 ****
1625 TO1   -55.664000  -76.198000   69.829000 T    542 GLP    -0.6000 ****
1626 HO1   -60.406000  -82.689000   75.777000 H    542 GLP     0.4000 ****
1627 TO2   -44.732000  -73.902000   63.800000 T    543 GLP     0.6000 ****
1628 TO1   -48.897000  -80.784000   69.741000 T    543 GLP    -0.6000 ****
1629 HO1   -53.062000  -87.666000   75.682000 H    543 GLP     0.4000 ****
1630 TO2   -38.201000  -77.546000   63.720000 T    544 GLP     0.6000 ****
1631 TO1   -41.759000  -84.767000   69.653000 T    544 GLP    -0.6000 ****
1632 HO1   -45.316000  -91.988000   75.587000 H    544 GLP     0.4000 ****
1633 TO2   -31.380000  -80.612000   63.639000 T    545 GLP     0.6000 ****
1634 TO1   -34.302000  -88.118000   69.565000 T    545 GLP    -0.6000 ****
1635 HO1   -37.224000  -95.624000   75.491000 H    545 GLP     0.4000 ****
1636 TO2   -24.320000  -83.077000   63.559000 T    546 GLP     0.6000 ****
1637 TO1   -26.585000  -90.813000   69.478000 T    546 GLP    -0.6000 ****
1638 HO1   -28.849000  -98.548000   75.396000 H    546 GLP     0.4000 ****
1639 TO2   -17.073000  -84.923000   63.479000 T    547 GLP     0.6000 ****
1640 TO1   -18.663000  -92.831000   69.390000 T    547 GLP    -0.6000 ****
1641 HO1   -20.253000 -100.739000   75.301000 H    547 GLP     0.4000 ****
1642 TO2    -9.694000  -86.137000   63.398000 T    548 GLP     0.6000 ****
1643 TO1   -10.597000  -94.158000   69.302000 T    548 GLP    -0.6000 ****
1644 HO1   -11.500000 -102.179000   75.205000 H    548 GLP     0.4000 ****
1645 TO2    -2.238000  -86.711000   63.318000 T    549 GLP     0.6000 ****
1646 TO1    -2.446000  -94.785000   69.214000 T    549 GLP    -0.6000 ****
1647 HO1    -2.655000 -102.859000   75.110000 H    549 GLP     0.4000 ****
1648 TO2     5.240000  -86.640000   63.238000 T    550 GLP     0.6000 ****
1649 TO1     5.728000  -94.708000   69.126000 T    550 GLP    -0.6000 ****
1650 HO1     6.216000 -102.775000   75.015000 H    550 GLP     0.4000 ****
1651 TO2    12.684000  -85.926000   63.157000 T    551 GLP     0.6000 ****
1652 TO1    13.865000  -93.927000   69.038000 T    551 GLP    -0.6000 ****
1653 HO1    15.046000 -101.928000   74.919000 H    551 GLP     0.4000 ****
1654 TO2    20.039000  -84.574000   63.077000 T    552 GLP     0.6000 ****
1655 TO1    21.905000  -92.449000   68.951000 T    552 GLP    -0.6000 ****
1656 HO1    23.771000 -100.324000   74.824000 H    552 GLP     0.4000 ****
1657 TO2    27.250000  -82.594000   62.997000 T    553 GLP     0.6000 ****
1658 TO1    29.788000  -90.285000   68.863000 T    553 GLP    -0.6000 ****
1659 HO1    32.325000  -97.976000   74.729000 H    553 GLP     0.4000 ****
1660 TO2    34.265000  -80.003000   62.916000 T    554 GLP     0.6000 ****
1661 TO1    37.456000  -87.452000   68.775000 T    554 GLP    -0.6000 ****
1662 HO1    40.647000  -94.902000   74.633000 H    554 GLP     0.4000 ****
1663 TO2    41.031000  -76.818000   62.836000 T    555 GLP     0.6000 ****
1664 TO1    44.852000  -83.971000   68.687000 T    555 GLP    -0.6000 ****
1665 HO1    48.673000  -91.124000   74.538000 H    555 GLP     0.4000 ****
1666 TO2    47.500000  -73.065000   62.756000 T    556 GLP     0.6000 ****
1667 TO1    51.923000  -79.869000   68.599000 T    556 GLP    -0.6000 ****
1668 HO1    56.346000  -86.672000   74.443000 H    556 GLP     0.4000 ****
1669 TO2    53.622000  -68.771000   62.675000 T    557 GLP     0.6000 ****
1670 TO1    58.615000  -75.175000   68.511000 T    557 GLP    -0.6000 ****
1671 HO1    63.608000  -81.578000   74.348000 H    557 GLP     0.4000 ****
1672 TO2    59.354000  -63.968000   62.595000 T    558 GLP     0.6000 ****
1673 TO1    64.881000  -69.925000   68.424000 T    558 GLP    -0.6000 ****
1674 HO1    70.408000  -75.881000   74.252000 H    558 GLP     0.4000 ****
1675 TO2    64.654000  -58.692000   62.515000 T    559 GLP     0.6000 ****
1676 TO1    70.674000  -64.157000   68.336000 T    559 GLP    -0.6000 ****
1677 HO1    76.695000  -69.623000   74.157000 H    559 GLP     0.4000 ****
1678 TO2    69.483000  -52.982000   62.434000 T    560 GLP     0.6000 ****
1679 TO1    75.953000  -57.915000   68.248000 T    560 GLP    -0.6000 ****
1680 HO1    82.423000  -62.849000   74.062000 H    560 GLP     0.4000 ****
1681 TO2    73.806000  -46.880000   62.354000 T    561 GLP     0.6000 ****
1682 TO1    80.678000  -51.245000   68.160000 T    561 GLP    -0.6000 ****
1683 HO1    87.551000  -55.610000   73.966000 H    561 GLP     0.4000 ****
1684 TO2    77.591000  -40.430000   62.273000 T    562 GLP     0.6000 ****
1685 TO1    84.816000  -44.195000   68.072000 T    562 GLP    -0.6000 ****
1686 HO1    92.041000  -47.960000   73.871000 H    562 GLP     0.4000 ****
1687 TO2    80.812000  -33.681000   62.193000 T    563 GLP     0.6000 ****
1688 TO1    88.337000  -36.818000   67.984000 T    563 GLP    -0.6000 ****
1689 HO1    95.862000  -39.954000   73.776000 H    563 GLP     0.4000 ****
1690 TO2    83.445000  -26.682000   62.113000 T    564 GLP     0.6000 ****
1691 TO1    91.215000  -29.167000   67.897000 T    564 GLP    -0.6000 ****
1692 HO1    98.985000  -31.651000   73.680000 H    564 GLP     0.4000 ****
1693 TO2    85.471000  -19.484000   62.032000 T    565 GLP     0.6000 ****
1694 TO1    93.430000  -21.298000   67.809000 T    565 GLP    -0.6000 ****
1695 HO1   101.389000  -23.112000   73.585000 H    565 GLP     0.4000 ****
1696 TO2    86.877000  -12.139000   61.952000 T    566 GLP     0.6000 ****
1697 TO1    94.966000  -13.269000   67.721000 T    566 GLP    -0.6000 ****
1698 HO1   103.056000  -14.399000   73.490000 H    566 GLP     0.4000 ****
1699 TO2    87.651000   -4.701000   61.872000 T    567 GLP     0.6000 ****
1700 TO1    95.813000   -5.139000   67.633000 T    567 GLP    -0.6000 ****
1701 HO1   103.975000   -5.576000   73.394000 H    567 GLP     0.4000 ****
1702 TO2    87.790000    2.776000   61.791000 T    568 GLP     0.6000 ****
1703 TO1    95.965000    3.034000   67.545000 T    568 GLP    -0.6000 ****
1704 HO1   104.140000    3.293000   73.299000 H    568 GLP     0.4000 ****
1705 TO2    87.292000   10.238000   61.711000 T    569 GLP     0.6000 ****
1706 TO1    95.420000   11.191000   67.457000 T    569 GLP    -0.6000 ****
1707 HO1   103.549000   12.144000   73.204000 H    569 GLP     0.4000 ****
1708 TO2    86.162000   17.630000   61.631000 T    570 GLP     0.6000 ****
1709 TO1    94.185000   19.271000   67.370000 T    570 GLP    -0.6000 ****
1710 HO1   102.208000   20.913000   73.108000 H    570 GLP     0.4000 ****
1711 TO2    84.407000   24.899000   61.550000 T    571 GLP     0.6000 ****
1712 TO1    92.267000   27.218000   67.282000 T    571 GLP    -0.6000 ****
1713 HO1   100.127000   29.536000   73.013000 H    571 GLP     0.4000 ****
1714 TO2    82.042000   31.993000   61.470000 T    572 GLP     0.6000 ****
1715 TO1    89.681000   34.972000   67.194000 T    572 GLP    -0.6000 ****
1716 HO1    97.321000   37.952000   72.918000 H    572 GLP     0.4000 ****
1717 TO2    79.083000   38.861000   61.390000 T    573 GLP     0.6000 ****
1718 TO1    86.447000   42.480000   67.106000 T    573 GLP    -0.6000 ****
1719 HO1    93.811000   46.099000   72.822000 H    573 GLP     0.4000 ****
1720 TO2    75.552000   45.453000   61.309000 T    574 GLP     0.6000 ****
1721 TO1    82.587000   49.686000   67.018000 T    574 GLP    -0.6000 ****
1722 HO1    89.623000   53.918000   72.727000 H    574 GLP     0.4000 ****
1723 TO2    71.476000   51.723000   61.229000 T    575 GLP     0.6000 ****
1724 TO1    78.131000   56.539000   66.930000 T    575 GLP    -0.6000 ****
1725 HO1    84.787000   61.355000   72.632000 H    575 GLP     0.4000 ****
1726 TO2    66.883000   57.624000   61.149000 T    576 GLP     0.6000 ****
1727 TO1    73.110000   62.990000   66.843000 T    576 GLP    -0.6000 ****
1728 HO1    79.338000   68.356000   72.537000 H    576 GLP     0.4000 ****
1729 TO2    61.807000   63.116000   61.068000 T    577 GLP     0.6000 ****
1730 TO1    67.562000   68.993000   66.755000 T    577 GLP    -0.6000 ****
1731 HO1    73.317000   74.870000   72.441000 H    577 GLP     0.4000 ****
1732 TO2    56.284000   68.158000   60.988000 T    578 GLP     0.6000 ****
1733 TO1    61.525000   74.505000   66.667000 T    578 GLP    -0.6000 ****
1734 HO1    66.766000   80.851000   72.346000 H    578 GLP     0.4000 ****
1735 TO2    50.355000   72.716000   60.907000 T    579 GLP     0.6000 ****
1736 TO1    55.044000   79.487000   66.579000 T    579 GLP    -0.6000 ****
1737 HO1    59.733000   86.258000   72.251000 H    579 GLP     0.4000 ****
1738 TO2    44.063000   76.756000   60.827000 T    580 GLP     0.6000 ****
1739 TO1    48.166000   83.903000   66.491000 T    580 GLP    -0.6000 ****
1740 HO1    52.269000   91.051000   72.155000 H    580 GLP     0.4000 ****
1741 TO2    37.452000   80.251000   60.747000 T    581 GLP     0.6000 ****
1742 TO1    40.939000   87.723000   66.403000 T    581 GLP    -0.6000 ****
1743 HO1    44.426000   95.196000   72.060000 H    581 GLP     0.4000 ****
1744 TO2    30.569000   83.175000   60.666000 T    582 GLP     0.6000 ****
1745 TO1    33.415000   90.920000   66.316000 T    582 GLP    -0.6000 ****
1746 HO1    36.262000   98.665000   71.965000 H    582 GLP     0.4000 ****
1747 TO2    23.464000   85.509000   60.586000 T    583 GLP     0.6000 ****
1748 TO1    25.649000   93.471000   66.228000 T    583 GLP    -0.6000 ****
1749 HO1    27.834000  101.433000   71.869000 H    583 GLP     0.4000 ****
1750 TO2    16.188000   87.235000   60.506000 T    584 GLP     0.6000 ****
1751 TO1    17.696000   95.358000   66.140000 T    584 GLP    -0.6000 ****
1752 HO1    19.203000  103.481000   71.774000 H    584 GLP     0.4000 ****
1753 TO2     8.793000   88.343000   60.425000 T    585 GLP     0.6000 ****
1754 TO1     9.611000   96.569000   66.052000 T    585 GLP    -0.6000 ****
1755 HO1    10.430000  104.795000   71.679000 H    585 GLP     0.4000 ****
1756 TO2     1.330000   88.824000   60.345000 T    586 GLP     0.6000 ****
1757 TO1     1.454000   97.095000   65.964000 T    586 GLP    -0.6000 ****
1758 HO1     1.578000  105.366000   71.583000 H    586 GLP     0.4000 ****
1759 TO2    -6.147000   88.676000   60.265000 T    587 GLP     0.6000 ****
1760 TO1    -6.719000   96.933000   65.876000 T    587 GLP    -0.6000 ****
1761 HO1    -7.291000  105.190000   71.488000 H    587 GLP     0.4000 ****
1762 TO2   -13.584000   87.899000   60.184000 T    588 GLP     0.6000 ****
1763 TO1   -14.849000   96.084000   65.789000 T    588 GLP    -0.6000 ****
1764 HO1   -16.114000  104.269000   71.393000 H    588 GLP     0.4000 ****
1765 TO2   -20.930000   86.501000   60.104000 T    589 GLP     0.6000 ****
1766 TO1   -22.879000   94.556000   65.701000 T    589 GLP    -0.6000 ****
1767 HO1   -24.828000  102.610000   71.297000 H    589 GLP     0.4000 ****
1768 TO2   -28.133000   84.491000   60.024000 T    590 GLP     0.6000 ****
1769 TO1   -30.753000   92.358000   65.613000 T    590 GLP    -0.6000 ****
1770 HO1   -33.373000  100.226000   71.202000 H    590 GLP     0.4000 ****
1771 TO2   -35.142000   81.883000   59.943000 T    591 GLP     0.6000 ****
1772 TO1   -38.414000   89.508000   65.525000 T    591 GLP    -0.6000 ****
1773 HO1   -41.687000   97.132000   71.107000 H    591 GLP     0.4000 ****
1774 TO2   -41.907000   78.697000   59.863000 T    592 GLP     0.6000 ****
1775 TO1   -45.810000   86.025000   65.437000 T    592 GLP    -0.6000 ****
1776 HO1   -49.712000   93.353000   71.011000 H    592 GLP     0.4000 ****
1777 TO2   -48.382000   74.955000   59.783000 T    593 GLP     0.6000 ****
1778 TO1   -52.887000   81.934000   65.349000 T    593 GLP    -0.6000 ****
1779 HO1   -57.392000   88.914000   70.916000 H    593 GLP     0.4000 ****
1780 TO2   -54.520000   70.684000   59.702000 T    594 GLP     0.6000 ****
1781 TO1   -59.597000   77.266000   65.262000 T    594 GLP    -0.6000 ****
1782 HO1   -64.674000   83.847000   70.821000 H    594 GLP     0.4000 ****
1783 TO2   -60.279000   65.914000   59.622000 T    595 GLP     0.6000 ****
1784 TO1   -65.892000   72.051000   65.174000 T    595 GLP    -0.6000 ****
1785 HO1   -71.505000   78.189000   70.725000 H    595 GLP     0.4000 ****
1786 TO2   -65.619000   60.679000   59.541000 T    596 GLP     0.6000 ****
1787 TO1   -71.729000   66.329000   65.086000 T    596 GLP    -0.6000 ****
1788 HO1   -77.840000   71.979000   70.630000 H    596 GLP     0.4000 ****
1789 TO2   -70.503000   55.015000   59.461000 T    597 GLP     0.6000 ****
1790 TO1   -77.068000   60.138000   64.998000 T    597 GLP    -0.6000 ****
1791 HO1   -83.633000   65.261000   70.535000 H    597 GLP     0.4000 ****
1792 TO2   -74.896000   48.964000   59.381000 T    598 GLP     0.6000 ****
1793 TO1   -81.870000   53.523000   64.910000 T    598 GLP    -0.6000 ****
1794 HO1   -88.844000   58.083000   70.440000 H    598 GLP     0.4000 ****
1795 TO2   -78.769000   42.567000   59.300000 T    599 GLP     0.6000 ****
1796 TO1   -86.103000   46.530000   64.822000 T    599 GLP    -0.6000 ****
1797 HO1   -93.438000   50.494000   70.344000 H    599 GLP     0.4000 ****
1798 TO2   -82.094000   35.869000   59.220000 T    600 GLP     0.6000 ****
1799 TO1   -89.738000   39.209000   64.734000 T    600 GLP    -0.6000 ****
1800 HO1   -97.382000   42.549000   70.249000 H    600 GLP     0.4000 ****
1801 TO2   -84.849000   28.917000   59.140000 T    601 GLP     0.6000 ****
1802 TO1   -92.749000   31.609000   64.647000 T    601 GLP    -0.6000 ****
1803 HO1  -100.650000   34.302000   70.154000 H    601 GLP     0.4000 ****
1804 TO2   -87.014000   21.759000   59.059000 T    602 GLP     0.6000 ****
1805 TO1   -95.117000   23.785000   64.559000 T    602 GLP    -0.6000 ****
1806 HO1  -103.219000   25.811000   70.058000 H    602 GLP     0.4000 ****
1807 TO2   -88.576000   14.446000   58.979000 T    603 GLP     0.6000 ****
1808 TO1   -96.824000   15.791000   64.471000 T    603 GLP    -0.6000 ****
1809 HO1  -105.072000   17.136000   69.963000 H    603 GLP     0.4000 ****
1810 TO2   -89.524000    7.028000   58.899000 T    604 GLP     0.6000 ****
1811 TO1   -97.860000    7.683000   64.383000 T    604 GLP    -0.6000 ****
1812 HO1  -106.196000    8.337000   69.868000 H    604 GLP     0.4000 ****
1813 TO2   -89.851000   -0.443000   58.818000 T    605 GLP     0.6000 ****
1814 TO1   -98.218000   -0.484000   64.295000 T    605 GLP    -0.6000 ****
1815 HO1  -106.584000   -0.525000   69.772000 H    605 GLP     0.4000 ****
1816 TO2   -89.555000   -7.915000   58.738000 T    606 GLP     0.6000 ****
1817 TO1   -97.895000   -8.652000   64.207000 T    606 GLP    -0.6000 ****
1818 HO1  -106.234000   -9.389000   69.677000 H    606 GLP     0.4000 ****
1819 TO2   -88.640000  -15.337000   58.658000 T    607 GLP     0.6000 ****
1820 TO1   -96.894000  -16.765000   64.120000 T    607 GLP    -0.6000 ****
1821 HO1  -105.148000  -18.193000   69.582000 H    607 GLP     0.4000 ****
1822 TO2   -87.111000  -22.657000   58.577000 T    608 GLP     0.6000 ****
1823 TO1   -95.223000  -24.766000   64.032000 T    608 GLP    -0.6000 ****
1824 HO1  -103.334000  -26.876000   69.486000 H    608 GLP     0.4000 ****
1825 TO2   -84.980000  -29.824000   58.497000 T    609 GLP     0.6000 ****
1826 TO1   -92.893000  -32.602000   63.944000 T    609 GLP    -0.6000 ****
1827 HO1  -100.806000  -35.379000   69.391000 H    609 GLP     0.4000 ****
1828 TO2   -82.261000  -36.791000   58.417000 T    610 GLP     0.6000 ****
1829 TO1   -89.921000  -40.217000   63.856000 T    610 GLP    -0.6000 ****
1830 HO1   -97.581000  -43.642000   69.296000 H    610 GLP     0.4000 ****
1831 TO2   -78.974000  -43.508000   58.336000 T    611 GLP     0.6000 ****
1832 TO1   -86.328000  -47.559000   63.768000 T    611 GLP    -0.6000 ****
1833 HO1   -93.682000  -51.610000   69.200000 H    611 GLP     0.4000 ****
1834 TO2   -75.142000  -49.929000   58.256000 T    612 GLP     0.6000 ****
1835 TO1   -82.139000  -54.578000   63.680000 T    612 GLP    -0.6000 ****
1836 HO1   -89.136000  -59.227000   69.105000 H    612 GLP     0.4000 ****
1837 TO2   -70.791000  -56.011000   58.176000 T    613 GLP     0.6000 ****
1838 TO1   -77.383000  -61.226000   63.593000 T    613 GLP    -0.6000 ****
1839 HO1   -83.975000  -66.442000   69.010000 H    613 GLP     0.4000 ****
1840 TO2   -65.951000  -61.712000   58.095000 T    614 GLP     0.6000 ****
1841 TO1   -72.093000  -67.458000   63.505000 T    614 GLP    -0.6000 ****
1842 HO1   -78.234000  -73.204000   68.914000 H    614 GLP     0.4000 ****
1843 TO2   -60.657000  -66.993000   58.015000 T    615 GLP     0.6000 ****
1844 TO1   -66.305000  -73.231000   63.417000 T    615 GLP    -0.6000 ****
1845 HO1   -71.953000  -79.469000   68.819000 H    615 GLP     0.4000 ****
1846 TO2   -54.944000  -71.817000   57.934000 T    616 GLP     0.6000 ****
1847 TO1   -60.060000  -78.505000   63.329000 T    616 GLP    -0.6000 ****
1848 HO1   -65.176000  -85.192000   68.724000 H    616 GLP     0.4000 ****
1849 TO2   -48.851000  -76.154000   57.854000 T    617 GLP     0.6000 ****
1850 TO1   -53.400000  -83.245000   63.241000 T    617 GLP    -0.6000 ****
1851 HO1   -57.949000  -90.336000   68.628000 H    617 GLP     0.4000 ****
1852 TO2   -42.422000  -79.972000   57.774000 T    618 GLP     0.6000 ****
1853 TO1   -46.372000  -87.419000   63.153000 T    618 GLP    -0.6000 ****
1854 HO1   -50.322000  -94.866000   68.533000 H    618 GLP     0.4000 ****
1855 TO2   -35.699000  -83.247000   57.693000 T    619 GLP     0.6000 ****
1856 TO1   -39.023000  -90.998000   63.066000 T    619 GLP    -0.6000 ****
1857 HO1   -42.347000  -98.750000   68.438000 H    619 GLP     0.4000 ****
1858 TO2   -28.729000  -85.956000   57.613000 T    620 GLP     0.6000 ****
1859 TO1   -31.404000  -93.959000   62.978000 T    620 GLP    -0.6000 ****
1860 HO1   -34.079000 -101.963000   68.343000 H    620 GLP     0.4000 ****
1861 TO2   -21.559000  -88.080000   57.533000 T    621 GLP     0.6000 ****
1862 TO1   -23.567000  -96.282000   62.890000 T    621 GLP    -0.6000 ****
1863 HO1   -25.574000 -104.484000   68.247000 H    621 GLP     0.4000 ****
1864 TO2   -14.239000  -89.607000   57.452000 T    622 GLP     0.6000 ****
1865 TO1   -15.565000  -97.951000   62.802000 T    622 GLP    -0.6000 ****
1866 HO1   -16.890000 -106.295000   68.152000 H    622 GLP     0.4000 ****
1867 TO2    -6.817000  -90.526000   57.372000 T    623 GLP     0.6000 ****
1868 TO1    -7.452000  -98.955000   62.714000 T    623 GLP    -0.6000 ****
1869 HO1    -8.087000 -107.385000   68.057000 H    623 GLP     0.4000 ****
1870 TO2     0.654000  -90.831000   57.292000 T    624 GLP     0.6000 ****
1871 TO1     0.715000  -99.289000   62.626000 T    624 GLP    -0.6000 ****
1872 HO1     0.776000 -107.746000   67.961000 H    624 GLP     0.4000 ****
1873 TO2     8.126000  -90.520000   57.211000 T    625 GLP     0.6000 ****
1874 TO1     8.882000  -98.949000   62.539000 T    625 GLP    -0.6000 ****
1875 HO1     9.639000 -107.378000   67.866000 H    625 GLP     0.4000 ****
1876 TO2    15.546000  -89.595000   57.131000 T    626 GLP     0.6000 ****
1877 TO1    16.994000  -97.938000   62.451000 T    626 GLP    -0.6000 ****
1878 HO1    18.442000 -106.281000   67.771000 H    626 GLP     0.4000 ****
1879 TO2    22.866000  -88.064000   57.051000 T    627 GLP     0.6000 ****
1880 TO1    24.995000  -96.265000   62.363000 T    627 GLP    -0.6000 ****
1881 HO1    27.124000 -104.465000   67.675000 H    627 GLP     0.4000 ****
1882 TO2    30.035000  -85.938000   56.970000 T    628 GLP     0.6000 ****
1883 TO1    32.832000  -93.940000   62.275000 T    628 GLP    -0.6000 ****
1884 HO1    35.629000 -101.942000   67.580000 H    628 GLP     0.4000 ****
1885 TO2    37.005000  -83.229000   56.890000 T    629 GLP     0.6000 ****
1886 TO1    40.451000  -90.979000   62.187000 T    629 GLP    -0.6000 ****
1887 HO1    43.897000  -98.729000   67.485000 H    629 GLP     0.4000 ****
1888 TO2    43.730000  -79.958000   56.810000 T    630 GLP     0.6000 ****
1889 TO1    47.802000  -87.404000   62.099000 T    630 GLP    -0.6000 ****
1890 HO1    51.874000  -94.849000   67.389000 H    630 GLP     0.4000 ****
1891 TO2    50.164000  -76.147000   56.729000 T    631 GLP     0.6000 ****
1892 TO1    54.835000  -83.238000   62.012000 T    631 GLP    -0.6000 ****
1893 HO1    59.506000  -90.328000   67.294000 H    631 GLP     0.4000 ****
1894 TO2    56.263000  -71.821000   56.649000 T    632 GLP     0.6000 ****
1895 TO1    61.502000  -78.509000   61.924000 T    632 GLP    -0.6000 ****
1896 HO1    66.742000  -85.197000   67.199000 H    632 GLP     0.4000 ****
1897 TO2    61.988000  -67.011000   56.568000 T    633 GLP     0.6000 ****
1898 TO1    67.761000  -73.250000   61.836000 T    633 GLP    -0.6000 ****
1899 HO1    73.533000  -79.490000   67.103000 H    633 GLP     0.4000 ****
1900 TO2    67.300000  -61.747000   56.488000 T    634 GLP     0.6000 ****
1901 TO1    73.567000  -67.497000   61.748000 T    634 GLP    -0.6000 ****
1902 HO1    79.834000  -73.247000   67.008000 H    634 GLP     0.4000 ****
1903 TO2    72.164000  -56.067000   56.408000 T    635 GLP     0.6000 ****
1904 TO1    78.884000  -61.288000   61.660000 T    635 GLP    -0.6000 ****
1905 HO1    85.603000  -66.509000   66.913000 H    635 GLP     0.4000 ****
1906 TO2    76.547000  -50.008000   56.327000 T    636 GLP     0.6000 ****
1907 TO1    83.674000  -54.665000   61.572000 T    636 GLP    -0.6000 ****
1908 HO1    90.802000  -59.321000   66.817000 H    636 GLP     0.4000 ****
1909 TO2    80.419000  -43.611000   56.247000 T    637 GLP     0.6000 ****
1910 TO1    87.908000  -47.672000   61.485000 T    637 GLP    -0.6000 ****
1911 HO1    95.396000  -51.733000   66.722000 H    637 GLP     0.4000 ****
1912 TO2    83.757000  -36.919000   56.167000 T    638 GLP     0.6000 ****
1913 TO1    91.556000  -40.357000   61.397000 T    638 GLP    -0.6000 ****
1914 HO1    99.355000  -43.795000   66.627000 H    638 GLP     0.4000 ****
1915 TO2    86.537000  -29.978000   56.086000 T    639 GLP     0.6000 ****
1916 TO1    94.595000  -32.769000   61.309000 T    639 GLP    -0.6000 ****
1917 HO1   102.653000  -35.560000   66.532000 H    639 GLP     0.4000 ****
1918 TO2    88.741000  -22.832000   56.006000 T    640 GLP     0.6000 ****
1919 TO1    97.005000  -24.958000   61.221000 T    640 GLP    -0.6000 ****
1920 HO1   105.268000  -27.084000   66.436000 H    640 GLP     0.4000 ****
1921 TO2    90.355000  -15.530000   55.926000 T    641 GLP     0.6000 ****
1922 TO1    98.769000  -16.976000   61.133000 T    641 GLP    -0.6000 ****
1923 HO1   107.183000  -18.423000   66.341000 H    641 GLP     0.4000 ****
1924 TO2    91.369000   -8.121000   55.845000 T    642 GLP     0.6000 ****
1925 TO1    99.877000   -8.878000   61.045000 T    642 GLP    -0.6000 ****
1926 HO1   108.385000   -9.634000   66.246000 H    642 GLP     0.4000 ****
1927 TO2    91.776000   -0.655000   55.765000 T    643 GLP     0.6000 ****
1928 TO1   100.322000   -0.716000   60.958000 T    643 GLP    -0.6000 ****
1929 HO1   108.868000   -0.777000   66.150000 H    643 GLP     0.4000 ****
1930 TO2    91.573000    6.820000   55.685000 T    644 GLP     0.6000 ****
1931 TO1   100.100000    7.456000   60.870000 T    644 GLP    -0.6000 ****
1932 HO1   108.627000    8.091000   66.055000 H    644 GLP     0.4000 ****
1933 TO2    90.763000   14.254000   55.604000 T    645 GLP     0.6000 ****
1934 TO1    99.215000   15.582000   60.782000 T    645 GLP    -0.6000 ****
1935 HO1   107.666000   16.909000   65.960000 H    645 GLP     0.4000 ****
1936 TO2    89.351000   21.598000   55.524000 T    646 GLP     0.6000 ****
1937 TO1    97.671000   23.609000   60.694000 T    646 GLP    -0.6000 ****
1938 HO1   105.991000   25.620000   65.864000 H    646 GLP     0.4000 ****
1939 TO2    87.347000   28.802000   55.444000 T    647 GLP     0.6000 ****
1940 TO1    95.480000   31.484000   60.606000 T    647 GLP    -0.6000 ****
1941 HO1   103.614000   34.166000   65.769000 H    647 GLP     0.4000 ****
1942 TO2    84.764000   35.819000   55.363000 T    648 GLP     0.6000 ****
1943 TO1    92.656000   39.155000   60.518000 T    648 GLP    -0.6000 ****
1944 HO1   100.549000   42.490000   65.674000 H    648 GLP     0.4000 ****
1945 TO2    81.619000   42.604000   55.283000 T    649 GLP     0.6000 ****
1946 TO1    89.219000   46.571000   60.431000 T    649 GLP    -0.6000 ****
1947 HO1    96.819000   50.538000   65.578000 H    649 GLP     0.4000 ****
1948 TO2    77.934000   49.111000   55.202000 T    650 GLP     0.6000 ****
1949 TO1    85.191000   53.684000   60.343000 T    650 GLP    -0.6000 ****
1950 HO1    92.448000   58.257000   65.483000 H    650 GLP     0.4000 ****
1951 TO2    73.734000   55.298000   55.122000 T    651 GLP     0.6000 ****
1952 TO1    80.600000   60.447000   60.255000 T    651 GLP    -0.6000 ****
1953 HO1    87.466000   65.596000   65.388000 H    651 GLP     0.4000 ****
1954 TO2    69.046000   61.123000   55.042000 T    652 GLP     0.6000 ****
1955 TO1    75.475000   66.815000   60.167000 T    652 GLP    -0.6000 ****
1956 HO1    81.904000   72.507000   65.292000 H    652 GLP     0.4000 ****
1957 TO2    63.901000   66.550000   54.961000 T    653 GLP     0.6000 ****
1958 TO1    69.851000   72.747000   60.079000 T    653 GLP    -0.6000 ****
1959 HO1    75.801000   78.944000   65.197000 H    653 GLP     0.4000 ****
1960 TO2    58.333000   71.542000   54.881000 T    654 GLP     0.6000 ****
1961 TO1    63.765000   78.204000   59.991000 T    654 GLP    -0.6000 ****
1962 HO1    69.197000   84.866000   65.102000 H    654 GLP     0.4000 ****
1963 TO2    52.380000   76.067000   54.801000 T    655 GLP     0.6000 ****
1964 TO1    57.257000   83.150000   59.904000 T    655 GLP    -0.6000 ****
1965 HO1    62.135000   90.233000   65.006000 H    655 GLP     0.4000 ****
1966 TO2    46.080000   80.095000   54.720000 T    656 GLP     0.6000 ****
1967 TO1    50.371000   87.554000   59.816000 T    656 GLP    -0.6000 ****
1968 HO1    54.662000   95.012000   64.911000 H    656 GLP     0.4000 ****
1969 TO2    39.475000   83.601000   54.640000 T    657 GLP     0.6000 ****
1970 TO1    43.151000   91.386000   59.728000 T    657 GLP    -0.6000 ****
1971 HO1    46.826000   99.171000   64.816000 H    657 GLP     0.4000 ****
1972 TO2    32.608000   86.562000   54.560000 T    658 GLP     0.6000 ****
1973 TO1    35.644000   94.622000   59.640000 T    658 GLP    -0.6000 ****
1974 HO1    38.681000  102.682000   64.720000 H    658 GLP     0.4000 ****
1975 TO2    25.524000   88.958000   54.479000 T    659 GLP     0.6000 ****
1976 TO1    27.901000   97.241000   59.552000 T    659 GLP    -0.6000 ****
1977 HO1    30.278000  105.525000   64.625000 H    659 GLP     0.4000 ****
1978 TO2    18.271000   90.774000   54.399000 T    660 GLP     0.6000 ****
1979 TO1    19.972000   99.227000   59.464000 T    660 GLP    -0.6000 ****
1980 HO1    21.673000  107.679000   64.530000 H    660 GLP     0.4000 ****
1981 TO2    10.894000   91.999000   54.319000 T    661 GLP     0.6000 ****
1982 TO1    11.908000  100.566000   59.377000 T    661 GLP    -0.6000 ****
1983 HO1    12.923000  109.132000   64.435000 H    661 GLP     0.4000 ****
1984 TO2     3.442000   92.625000   54.238000 T    662 GLP     0.6000 ****
1985 TO1     3.763000  101.250000   59.289000 T    662 GLP    -0.6000 ****
1986 HO1     4.083000  109.875000   64.339000 H    662 GLP     0.4000 ****
1987 TO2    -4.036000   92.648000   54.158000 T    663 GLP     0.6000 ****
1988 TO1    -4.411000  101.275000   59.201000 T    663 GLP    -0.6000 ****
1989 HO1    -4.787000  109.902000   64.244000 H    663 GLP     0.4000 ****
1990 TO2   -11.491000   92.068000   54.078000 T    664 GLP     0.6000 ****
1991 TO1   -12.561000  100.641000   59.113000 T    664 GLP    -0.6000 ****
1992 HO1   -13.631000  109.214000   64.149000 H    664 GLP     0.4000 ****
1993 TO2   -18.875000   90.890000   53.997000 T    665 GLP     0.6000 ****
1994 TO1   -20.633000   99.353000   59.025000 T    665 GLP    -0.6000 ****
1995 HO1   -22.391000  107.817000   64.053000 H    665 GLP     0.4000 ****
1996 TO2   -26.141000   89.121000   53.917000 T    666 GLP     0.6000 ****
1997 TO1   -28.575000   97.420000   58.937000 T    666 GLP    -0.6000 ****
1998 HO1   -31.009000  105.719000   63.958000 H    666 GLP     0.4000 ****
1999 TO2   -33.241000   86.774000   53.836000 T    667 GLP     0.6000 ****
2000 TO1   -36.336000   94.854000   58.850000 T    667 GLP    -0.6000 ****
2001 HO1   -39.431000  102.934000   63.863000 H    667 GLP     0.4000 ****
2002 TO2   -40.129000   83.863000   53.756000 T    668 GLP     0.6000 ****
2003 TO1   -43.865000   91.672000   58.762000 T    668 GLP    -0.6000 ****
2004 HO1   -47.602000   99.481000   63.767000 H    668 GLP     0.4000 ****
2005 TO2   -46.760000   80.407000   53.676000 T    669 GLP     0.6000 ****
2006 TO1   -51.114000   87.895000   58.674000 T    669 GLP    -0.6000 ****
2007 HO1   -55.469000   95.382000   63.672000 H    669 GLP     0.4000 ****
2008 TO2   -53.093000   76.431000   53.595000 T    670 GLP     0.6000 ****
2009 TO1   -58.037000   83.548000   58.586000 T    670 GLP    -0.6000 ****
2010 HO1   -62.981000   90.665000   63.577000 H    670 GLP     0.4000 ****
2011 TO2   -59.086000   71.958000   53.515000 T    671 GLP     0.6000 ****
2012 TO1   -64.588000   78.659000   58.498000 T    671 GLP    -0.6000 ****
2013 HO1   -70.090000   85.359000   63.481000 H    671 GLP     0.4000 ****
2014 TO2   -64.700000   67.019000   53.435000 T    672 GLP     0.6000 ****
2015 TO1   -70.725000   73.260000   58.410000 T    672 GLP    -0.6000 ****
2016 HO1   -76.750000   79.500000   63.386000 H    672 GLP     0.4000 ****
2017 TO2   -69.901000   61.646000   53.354000 T    673 GLP     0.6000 ****
2018 TO1   -76.410000   67.386000   58.323000 T    673 GLP    -0.6000 ****
2019 HO1   -82.918000   73.126000   63.291000 H    673 GLP     0.4000 ****
2020 TO2   -74.653000   55.873000   53.274000 T    674 GLP     0.6000 ****
2021 TO1   -81.605000   61.075000   58.235000 T    674 GLP    -0.6000 ****
2022 HO1   -88.556000   66.278000   63.195000 H    674 GLP     0.4000 ****
2023 TO2   -78.928000   49.737000   53.194000 T    675 GLP     0.6000 ****
2024 TO1   -86.278000   54.369000   58.147000 T    675 GLP    -0.6000 ****
2025 HO1   -93.627000   59.000000   63.100000 H    675 GLP     0.4000 ****
2026 TO2   -82.698000   43.279000   53.113000 T    676 GLP     0.6000 ****
2027 TO1   -90.398000   47.309000   58.059000 T    676 GLP    -0.6000 ****
2028 HO1   -98.099000   51.339000   63.005000 H    676 GLP     0.4000 ****
2029 TO2   -85.938000   36.540000   53.033000 T    677 GLP     0.6000 ****
2030 TO1   -93.940000   39.942000   57.971000 T    677 GLP    -0.6000 ****
2031 HO1  -101.942000   43.345000   62.909000 H    677 GLP     0.4000 ****
2032 TO2   -88.629000   29.563000   52.953000 T    678 GLP     0.6000 ****
2033 TO1   -96.881000   32.316000   57.883000 T    678 GLP    -0.6000 ****
2034 HO1  -105.134000   35.069000   62.814000 H    678 GLP     0.4000 ****
2035 TO2   -90.753000   22.393000   52.872000 T    679 GLP     0.6000 ****
2036 TO1   -99.203000   24.478000   57.796000 T    679 GLP    -0.6000 ****
2037 HO1  -107.654000   26.564000   62.719000 H    679 GLP     0.4000 ****
2038 TO2   -92.297000   15.077000   52.792000 T    680 GLP     0.6000 ****
2039 TO1  -100.891000   16.480000   57.708000 T    680 GLP    -0.6000 ****
2040 HO1  -109.486000   17.884000   62.624000 H    680 GLP     0.4000 ****
2041 TO2   -93.251000    7.660000   52.712000 T    681 GLP     0.6000 ****
2042 TO1  -101.935000    8.373000   57.620000 T    681 GLP    -0.6000 ****
2043 HO1  -110.618000    9.087000   62.528000 H    681 GLP     0.4000 ****
2044 TO2   -93.610000    0.191000   52.631000 T    682 GLP     0.6000 ****
2045 TO1  -102.327000    0.209000   57.532000 T    682 GLP    -0.6000 ****
2046 HO1  -111.044000    0.226000   62.433000 H    682 GLP     0.4000 ****
2047 TO2   -93.372000   -7.283000   52.551000 T    683 GLP     0.6000 ****
2048 TO1  -102.067000   -7.961000   57.444000 T    683 GLP    -0.6000 ****
2049 HO1  -110.761000   -8.639000   62.338000 H    683 GLP     0.4000 ****
2050 TO2   -92.538000  -14.714000   52.470000 T    684 GLP     0.6000 ****
2051 TO1  -101.155000  -16.084000   57.356000 T    684 GLP    -0.6000 ****
2052 HO1  -109.772000  -17.455000   62.242000 H    684 GLP     0.4000 ****
2053 TO2   -91.114000  -22.055000   52.390000 T    685 GLP     0.6000 ****
2054 TO1   -99.599000  -24.109000   57.269000 T    685 GLP    -0.6000 ****
2055 HO1  -108.083000  -26.163000   62.147000 H    685 GLP     0.4000 ****
2056 TO2   -89.110000  -29.259000   52.310000 T    686 GLP     0.6000 ****
2057 TO1   -97.407000  -31.984000   57.181000 T    686 GLP    -0.6000 ****
2058 HO1  -105.705000  -34.708000   62.052000 H    686 GLP     0.4000 ****
2059 TO2   -86.538000  -36.281000   52.229000 T    687 GLP     0.6000 ****
2060 TO1   -94.596000  -39.659000   57.093000 T    687 GLP    -0.6000 ****
2061 HO1  -102.654000  -43.037000   61.956000 H    687 GLP     0.4000 ****
2062 TO2   -83.415000  -43.075000   52.149000 T    688 GLP     0.6000 ****
2063 TO1   -91.182000  -47.086000   57.005000 T    688 GLP    -0.6000 ****
2064 HO1   -98.949000  -51.097000   61.861000 H    688 GLP     0.4000 ****
2065 TO2   -79.761000  -49.599000   52.069000 T    689 GLP     0.6000 ****
2066 TO1   -87.188000  -54.218000   56.917000 T    689 GLP    -0.6000 ****
2067 HO1   -94.615000  -58.836000   61.766000 H    689 GLP     0.4000 ****
2068 TO2   -75.599000  -55.812000   51.988000 T    690 GLP     0.6000 ****
2069 TO1   -82.639000  -61.009000   56.829000 T    690 GLP    -0.6000 ****
2070 HO1   -89.678000  -66.206000   61.670000 H    690 GLP     0.4000 ****
2071 TO2   -70.957000  -61.674000   51.908000 T    691 GLP     0.6000 ****
2072 TO1   -77.564000  -67.417000   56.741000 T    691 GLP    -0.6000 ****
2073 HO1   -84.171000  -73.160000   61.575000 H    691 GLP     0.4000 ****
2074 TO2   -65.863000  -67.149000   51.828000 T    692 GLP     0.6000 ****
2075 TO1   -71.996000  -73.401000   56.654000 T    692 GLP    -0.6000 ****
2076 HO1   -78.129000  -79.654000   61.480000 H    692 GLP     0.4000 ****
2077 TO2   -60.351000  -72.201000   51.747000 T    693 GLP     0.6000 ****
2078 TO1   -65.970000  -78.924000   56.566000 T    693 GLP    -0.6000 ****
2079 HO1   -71.590000  -85.647000   61.384000 H    693 GLP     0.4000 ****
2080 TO2   -54.454000  -76.800000   51.667000 T    694 GLP     0.6000 ****
2081 TO1   -59.525000  -83.951000   56.478000 T    694 GLP    -0.6000 ****
2082 HO1   -64.595000  -91.103000   61.289000 H    694 GLP     0.4000 ****
2083 TO2   -48.211000  -80.916000   51.587000 T    695 GLP     0.6000 ****
2084 TO1   -52.701000  -88.451000   56.390000 T    695 GLP    -0.6000 ****
2085 HO1   -57.190000  -95.986000   61.194000 H    695 GLP     0.4000 ****
2086 TO2   -41.662000  -84.524000   51.506000 T    696 GLP     0.6000 ****
2087 TO1   -45.541000  -92.395000   56.302000 T    696 GLP    -0.6000 ****
2088 HO1   -49.421000 -100.266000   61.098000 H    696 GLP     0.4000 ****
2089 TO2   -34.847000  -87.602000   51.426000 T    697 GLP     0.6000 ****
2090 TO1   -38.091000  -95.759000   56.214000 T    697 GLP    -0.6000 ****
2091 HO1   -41.336000 -103.916000   61.003000 H    697 GLP     0.4000 ****
2092 TO2   -27.809000  -90.129000   51.346000 T    698 GLP     0.6000 ****
2093 TO1   -30.399000  -98.522000   56.127000 T    698 GLP    -0.6000 ****
2094 HO1   -32.988000 -106.914000   60.908000 H    698 GLP     0.4000 ****
2095 TO2   -20.593000  -92.091000   51.265000 T    699 GLP     0.6000 ****
2096 TO1   -22.511000 -100.666000   56.039000 T    699 GLP    -0.6000 ****
2097 HO1   -24.428000 -109.242000   60.812000 H    699 GLP     0.4000 ****
2098 TO2   -13.245000  -93.475000   51.185000 T    700 GLP     0.6000 ****
2099 TO1   -14.478000 -102.180000   55.951000 T    700 GLP    -0.6000 ****
2100 HO1   -15.712000 -110.884000   60.717000 H    700 GLP     0.4000 ****
2101 TO2    -5.810000  -94.274000   51.104000 T    701 GLP     0.6000 ****
2102 TO1    -6.351000 -103.052000   55.863000 T    701 GLP    -0.6000 ****
2103 HO1    -6.892000 -111.831000   60.622000 H    701 GLP     0.4000 ****
2104 TO2     1.665000  -94.481000   51.024000 T    702 GLP     0.6000 ****
2105 TO1     1.820000 -103.279000   55.775000 T    702 GLP    -0.6000 ****
2106 HO1     1.975000 -112.077000   60.527000 H    702 GLP     0.4000 ****
2107 TO2     9.133000  -94.097000   50.944000 T    703 GLP     0.6000 ****
2108 TO1     9.983000 -102.859000   55.687000 T    703 GLP    -0.6000 ****
2109 HO1    10.834000 -111.621000   60.431000 H    703 GLP     0.4000 ****
2110 TO2    16.547000  -93.124000   50.863000 T    704 GLP     0.6000 ****
2111 TO1    18.088000 -101.795000   55.600000 T    704 GLP    -0.6000 ****
2112 HO1    19.628000 -110.467000   60.336000 H    704 GLP     0.4000 ****
2113 TO2    23.861000  -91.568000   50.783000 T    705 GLP     0.6000 ****
2114 TO1    26.083000 -100.095000   55.512000 T    705 GLP    -0.6000 ****
2115 HO1    28.304000 -108.621000   60.241000 H    705 GLP     0.4000 ****
2116 TO2    31.029000  -89.439000   50.703000 T    706 GLP     0.6000 ****
2117 TO1    33.918000  -97.768000   55.424000 T    706 GLP    -0.6000 ****
2118 HO1    36.808000 -106.096000   60.145000 H    706 GLP     0.4000 ****
2119 TO2    38.007000  -86.751000   50.622000 T    707 GLP     0.6000 ****
2120 TO1    41.546000  -94.830000   55.336000 T    707 GLP    -0.6000 ****
2121 HO1    45.085000 -102.908000   60.050000 H    707 GLP     0.4000 ****
2122 TO2    44.751000  -83.521000   50.542000 T    708 GLP     0.6000 ****
2123 TO1    48.918000  -91.299000   55.248000 T    708 GLP    -0.6000 ****
2124 HO1    53.085000  -99.076000   59.955000 H    708 GLP     0.4000 ****
2125 TO2    51.219000  -79.770000   50.462000 T    709 GLP     0.6000 ****
2126 TO1    55.989000  -87.197000   55.160000 T    709 GLP    -0.6000 ****
2127 HO1    60.758000  -94.625000   59.859000 H    709 GLP     0.4000 ****
2128 TO2    57.372000  -75.519000   50.381000 T    710 GLP     0.6000 ****
2129 TO1    62.714000  -82.552000   55.073000 T    710 GLP    -0.6000 ****
2130 HO1    68.056000  -89.584000   59.764000 H    710 GLP     0.4000 ****
2131 TO2    63.170000  -70.798000   50.301000 T    711 GLP     0.6000 ****
2132 TO1    69.052000  -77.390000   54.985000 T    711 GLP    -0.6000 ****
2133 HO1    74.935000  -83.983000   59.669000 H    711 GLP     0.4000 ****
2134 TO2    68.579000  -65.634000   50.221000 T    712 GLP     0.6000 ****
2135 TO1    74.964000  -71.746000   54.897000 T    712 GLP    -0.6000 ****
2136 HO1    81.350000  -77.857000   59.573000 H    712 GLP     0.4000 ****
2137 TO2    73.564000  -60.061000   50.140000 T    713 GLP     0.6000 ****
2138 TO1    80.414000  -65.653000   54.809000 T    713 GLP    -0.6000 ****
2139 HO1    87.264000  -71.246000   59.478000 H    713 GLP     0.4000 ****
2140 TO2    78.095000  -54.112000   50.060000 T    714 GLP     0.6000 ****
2141 TO1    85.367000  -59.151000   54.721000 T    714 GLP    -0.6000 ****
2142 HO1    92.639000  -64.190000   59.383000 H    714 GLP     0.4000 ****
2143 TO2    82.144000  -47.826000   49.980000 T    715 GLP     0.6000 ****
2144 TO1    89.793000  -52.279000   54.633000 T    715 GLP    -0.6000 ****
2145 HO1    97.442000  -56.733000   59.287000 H    715 GLP     0.4000 ****
2146 TO2    85.687000  -41.241000   49.899000 T    716 GLP     0.6000 ****
2147 TO1    93.666000  -45.081000   54.546000 T    716 GLP    -0.6000 ****
2148 HO1   101.645000  -48.921000   59.192000 H    716 GLP     0.4000 ****
2149 TO2    88.701000  -34.397000   49.819000 T    717 GLP     0.6000 ****
2150 TO1    96.961000  -37.600000   54.458000 T    717 GLP    -0.6000 ****
2151 HO1   105.220000  -40.803000   59.097000 H    717 GLP     0.4000 ****
2152 TO2    91.168000  -27.339000   49.738000 T    718 GLP     0.6000 ****
2153 TO1    99.658000  -29.884000   54.370000 T    718 GLP    -0.6000 ****
2154 HO1   108.147000  -32.430000   59.001000 H    718 GLP     0.4000 ****
2155 TO2    93.074000  -20.108000   49.658000 T    719 GLP     0.6000 ****
2156 TO1   101.740000  -21.980000   54.282000 T    719 GLP    -0.6000 ****
2157 HO1   110.407000  -23.853000   58.906000 H    719 GLP     0.4000 ****
2158 TO2    94.406000  -12.750000   49.578000 T    720 GLP     0.6000 ****
2159 TO1   103.197000  -13.937000   54.194000 T    720 GLP    -0.6000 ****
2160 HO1   111.987000  -15.124000   58.811000 H    720 GLP     0.4000 ****
2161 TO2    95.157000   -5.310000   49.497000 T    721 GLP     0.6000 ****
2162 TO1   104.017000   -5.804000   54.106000 T    721 GLP    -0.6000 ****
2163 HO1   112.878000   -6.299000   58.715000 H    721 GLP     0.4000 ****
2164 TO2    95.322000    2.166000   49.417000 T    722 GLP     0.6000 ****
2165 TO1   104.198000    2.368000   54.019000 T    722 GLP    -0.6000 ****
2166 HO1   113.074000    2.569000   58.620000 H    722 GLP     0.4000 ****
2167 TO2    94.900000    9.632000   49.337000 T    723 GLP     0.6000 ****
2168 TO1   103.737000   10.528000   53.931000 T    723 GLP    -0.6000 ****
2169 HO1   112.574000   11.425000   58.525000 H    723 GLP     0.4000 ****
2170 TO2    93.896000   17.041000   49.256000 T    724 GLP     0.6000 ****
2171 TO1   102.639000   18.628000   53.843000 T    724 GLP    -0.6000 ****
2172 HO1   111.382000   20.215000   58.430000 H    724 GLP     0.4000 ****
2173 TO2    92.313000   24.350000   49.176000 T    725 GLP     0.6000 ****
2174 TO1   100.909000   26.617000   53.755000 T    725 GLP    -0.6000 ****
2175 HO1   109.505000   28.885000   58.334000 H    725 GLP     0.4000 ****
2176 TO2    90.164000   31.512000   49.096000 T    726 GLP     0.6000 ****
2177 TO1    98.560000   34.446000   53.667000 T    726 GLP    -0.6000 ****
2178 HO1   106.956000   37.380000   58.239000 H    726 GLP     0.4000 ****
2179 TO2    87.461000   38.484000   49.015000 T    727 GLP     0.6000 ****
2180 TO1    95.605000   42.067000   53.579000 T    727 GLP    -0.6000 ****
2181 HO1   103.749000   45.651000   58.144000 H    727 GLP     0.4000 ****
2182 TO2    84.221000   45.223000   48.935000 T    728 GLP     0.6000 ****
2183 TO1    92.064000   49.434000   53.492000 T    728 GLP    -0.6000 ****
2184 HO1    99.906000   53.645000   58.048000 H    728 GLP     0.4000 ****
2185 TO2    80.464000   51.688000   48.855000 T    729 GLP     0.6000 ****
2186 TO1    87.957000   56.501000   53.404000 T    729 GLP    -0.6000 ****
2187 HO1    95.450000   61.315000   57.953000 H    729 GLP     0.4000 ****
2188 TO2    76.214000   57.840000   48.774000 T    730 GLP     0.6000 ****
2189 TO1    83.311000   63.226000   53.316000 T    730 GLP    -0.6000 ****
2190 HO1    90.407000   68.612000   57.858000 H    730 GLP     0.4000 ****
2191 TO2    71.496000   63.642000   48.694000 T    731 GLP     0.6000 ****
2192 TO1    78.153000   69.568000   53.228000 T    731 GLP    -0.6000 ****
2193 HO1    84.811000   75.494000   57.762000 H    731 GLP     0.4000 ****
2194 TO2    66.339000   69.057000   48.614000 T    732 GLP     0.6000 ****
2195 TO1    72.516000   75.487000   53.140000 T    732 GLP    -0.6000 ****
2196 HO1    78.694000   81.917000   57.667000 H    732 GLP     0.4000 ****
2197 TO2    60.776000   74.053000   48.533000 T    733 GLP     0.6000 ****
2198 TO1    66.435000   80.949000   53.052000 T    733 GLP    -0.6000 ****
2199 HO1    72.094000   87.844000   57.572000 H    733 GLP     0.4000 ****
2200 TO2    54.839000   78.600000   48.453000 T    734 GLP     0.6000 ****
2201 TO1    59.946000   85.919000   52.965000 T    734 GLP    -0.6000 ****
2202 HO1    65.052000   93.238000   57.476000 H    734 GLP     0.4000 ****
2203 TO2    48.567000   82.670000   48.372000 T    735 GLP     0.6000 ****
2204 TO1    53.089000   90.368000   52.877000 T    735 GLP    -0.6000 ****
2205 HO1    57.611000   98.066000   57.381000 H    735 GLP     0.4000 ****
2206 TO2    41.996000   86.239000   48.292000 T    736 GLP     0.6000 ****
2207 TO1    45.906000   94.270000   52.789000 T    736 GLP    -0.6000 ****
2208 HO1    49.817000  102.300000   57.286000 H    736 GLP     0.4000 ****
2209 TO2    35.167000   89.285000   48.212000 T    737 GLP     0.6000 ****
2210 TO1    38.441000   97.599000   52.701000 T    737 GLP    -0.6000 ****
2211 HO1    41.716000  105.913000   57.190000 H    737 GLP     0.4000 ****
2212 TO2    28.121000   91.791000   48.131000 T    738 GLP     0.6000 ****
2213 TO1    30.740000  100.338000   52.613000 T    738 GLP    -0.6000 ****
2214 HO1    33.358000  108.885000   57.095000 H    738 GLP     0.4000 ****
2215 TO2    20.902000   93.740000   48.051000 T    739 GLP     0.6000 ****
2216 TO1    22.849000  102.469000   52.525000 T    739 GLP    -0.6000 ****
2217 HO1    24.795000  111.197000   57.000000 H    739 GLP     0.4000 ****
2218 TO2    13.553000   95.121000   47.971000 T    740 GLP     0.6000 ****
2219 TO1    14.815000  103.979000   52.438000 T    740 GLP    -0.6000 ****
2220 HO1    16.077000  112.836000   56.904000 H    740 GLP     0.4000 ****
2221 TO2     6.119000   95.927000   47.890000 T    741 GLP     0.6000 ****
2222 TO1     6.689000  104.860000   52.350000 T    741 GLP    -0.6000 ****
2223 HO1     7.259000  113.792000   56.809000 H    741 GLP     0.4000 ****
2224 TO2    -1.355000   96.153000   47.810000 T    742 GLP     0.6000 ****
2225 TO1    -1.481000  105.106000   52.262000 T    742 GLP    -0.6000 ****
2226 HO1    -1.607000  114.060000   56.714000 H    742 GLP     0.4000 ****
2227 TO2    -8.824000   95.797000   47.730000 T    743 GLP     0.6000 ****
2228 TO1    -9.646000  104.717000   52.174000 T    743 GLP    -0.6000 ****
2229 HO1   -10.467000  113.637000   56.619000 H    743 GLP     0.4000 ****
2230 TO2   -16.243000   94.861000   47.649000 T    744 GLP     0.6000 ****
2231 TO1   -17.755000  103.695000   52.086000 T    744 GLP    -0.6000 ****
2232 HO1   -19.268000  112.528000   56.523000 H    744 GLP     0.4000 ****
2233 TO2   -23.567000   93.353000   47.569000 T    745 GLP     0.6000 ****
2234 TO1   -25.761000  102.046000   51.998000 T    745 GLP    -0.6000 ****
2235 HO1   -27.956000  110.739000   56.428000 H    745 GLP     0.4000 ****
2236 TO2   -30.751000   91.281000   47.489000 T    746 GLP     0.6000 ****
2237 TO1   -33.615000   99.780000   51.911000 T    746 GLP    -0.6000 ****
2238 HO1   -36.478000  108.280000   56.333000 H    746 GLP     0.4000 ****
2239 TO2   -37.754000   88.657000   47.408000 T    747 GLP     0.6000 ****
2240 TO1   -41.269000   96.913000   51.823000 T    747 GLP    -0.6000 ****
2241 HO1   -44.784000  105.168000   56.237000 H    747 GLP     0.4000 ****
2242 TO2   -44.531000   85.499000   47.328000 T    748 GLP     0.6000 ****
2243 TO1   -48.678000   93.460000   51.735000 T    748 GLP    -0.6000 ****
2244 HO1   -52.824000  101.421000   56.142000 H    748 GLP     0.4000 ****
2245 TO2   -51.044000   81.824000   47.248000 T    749 GLP     0.6000 ****
2246 TO1   -55.797000   89.443000   51.647000 T    749 GLP    -0.6000 ****
2247 HO1   -60.550000   97.063000   56.047000 H    749 GLP     0.4000 ****
2248 TO2   -57.252000   77.656000   47.167000 T    750 GLP     0.6000 ****
2249 TO1   -62.583000   84.887000   51.559000 T    750 GLP    -0.6000 ****
2250 HO1   -67.914000   92.118000   55.951000 H    750 GLP     0.4000 ****
2251 TO2   -63.118000   73.020000   47.087000 T    751 GLP     0.6000 ****
2252 TO1   -68.996000   79.819000   51.471000 T    751 GLP    -0.6000 ****
2253 HO1   -74.873000   86.618000   55.856000 H    751 GLP     0.4000 ****
2254 TO2   -68.608000   67.943000   47.006000 T    752 GLP     0.6000 ****
2255 TO1   -74.997000   74.270000   51.384000 T    752 GLP    -0.6000 ****
2256 HO1   -81.386000   80.596000   55.761000 H    752 GLP     0.4000 ****
2257 TO2   -73.689000   62.457000   46.926000 T    753 GLP     0.6000 ****
2258 TO1   -80.551000   68.272000   51.296000 T    753 GLP    -0.6000 ****
2259 HO1   -87.413000   74.088000   55.665000 H    753 GLP     0.4000 ****
2260 TO2   -78.330000   56.594000   46.846000 T    754 GLP     0.6000 ****
2261 TO1   -85.624000   61.863000   51.208000 T    754 GLP    -0.6000 ****
2262 HO1   -92.918000   67.133000   55.570000 H    754 GLP     0.4000 ****
2263 TO2   -82.504000   50.389000   46.765000 T    755 GLP     0.6000 ****
2264 TO1   -90.186000   55.081000   51.120000 T    755 GLP    -0.6000 ****
2265 HO1   -97.869000   59.773000   55.475000 H    755 GLP     0.4000 ****
2266 TO2   -86.186000   43.881000   46.685000 T    756 GLP     0.6000 ****
2267 TO1   -94.211000   47.967000   51.032000 T    756 GLP    -0.6000 ****
2268 HO1  -102.236000   52.053000   55.379000 H    756 GLP     0.4000 ****
2269 TO2   -89.353000   37.107000   46.605000 T    757 GLP     0.6000 ****
2270 TO1   -97.674000   40.563000   50.944000 T    757 GLP    -0.6000 ****
2271 HO1  -105.994000   44.018000   55.284000 H    757 GLP     0.4000 ****
2272 TO2   -91.988000   30.110000   46.524000 T    758 GLP     0.6000 ****
2273 TO1  -100.554000   32.913000   50.857000 T    758 GLP    -0.6000 ****
2274 HO1  -109.120000   35.717000   55.189000 H    758 GLP     0.4000 ****
2275 TO2   -94.075000   22.929000   46.444000 T    759 GLP     0.6000 ****
2276 TO1  -102.835000   25.064000   50.769000 T    759 GLP    -0.6000 ****
2277 HO1  -111.595000   27.199000   55.093000 H    759 GLP     0.4000 ****
2278 TO2   -95.602000   15.609000   46.364000 T    760 GLP     0.6000 ****
2279 TO1  -104.504000   17.063000   50.681000 T    760 GLP    -0.6000 ****
2280 HO1  -113.406000   18.516000   54.998000 H    760 GLP     0.4000 ****
2281 TO2   -96.559000    8.193000   46.283000 T    761 GLP     0.6000 ****
2282 TO1  -105.551000    8.956000   50.593000 T    761 GLP    -0.6000 ****
2283 HO1  -114.542000    9.719000   54.903000 H    761 GLP     0.4000 ****
2284 TO2   -96.942000    0.726000   46.203000 T    762 GLP     0.6000 ****
2285 TO1  -105.969000    0.793000   50.505000 T    762 GLP    -0.6000 ****
2286 HO1  -114.996000    0.861000   54.807000 H    762 GLP     0.4000 ****
2287 TO2   -96.748000   -6.749000   46.123000 T    763 GLP     0.6000 ****
2288 TO1  -105.757000   -7.378000   50.417000 T    763 GLP    -0.6000 ****
2289 HO1  -114.765000   -8.006000   54.712000 H    763 GLP     0.4000 ****
2290 TO2   -95.978000  -14.187000   46.042000 T    764 GLP     0.6000 ****
2291 TO1  -104.915000  -15.508000   50.330000 T    764 GLP    -0.6000 ****
2292 HO1  -113.853000  -16.829000   54.617000 H    764 GLP     0.4000 ****
2293 TO2   -94.638000  -21.544000   45.962000 T    765 GLP     0.6000 ****
2294 TO1  -103.450000  -23.550000   50.242000 T    765 GLP    -0.6000 ****
2295 HO1  -112.263000  -25.556000   54.522000 H    765 GLP     0.4000 ****
2296 TO2   -92.735000  -28.775000   45.882000 T    766 GLP     0.6000 ****
2297 TO1  -101.371000  -31.455000   50.154000 T    766 GLP    -0.6000 ****
2298 HO1  -110.006000  -34.134000   54.426000 H    766 GLP     0.4000 ****
2299 TO2   -90.282000  -35.839000   45.801000 T    767 GLP     0.6000 ****
2300 TO1   -98.689000  -39.176000   50.066000 T    767 GLP    -0.6000 ****
2301 HO1  -107.095000  -42.513000   54.331000 H    767 GLP     0.4000 ****
2302 TO2   -87.292000  -42.692000   45.721000 T    768 GLP     0.6000 ****
2303 TO1   -95.421000  -46.668000   49.978000 T    768 GLP    -0.6000 ****
2304 HO1  -103.549000  -50.643000   54.236000 H    768 GLP     0.4000 ****
2305 TO2   -83.784000  -49.296000   45.640000 T    769 GLP     0.6000 ****
2306 TO1   -91.586000  -53.886000   49.890000 T    769 GLP    -0.6000 ****
2307 HO1   -99.388000  -58.477000   54.140000 H    769 GLP     0.4000 ****
2308 TO2   -79.779000  -55.610000   45.560000 T    770 GLP     0.6000 ****
2309 TO1   -87.208000  -60.789000   49.803000 T    770 GLP    -0.6000 ****
2310 HO1   -94.637000  -65.967000   54.045000 H    770 GLP     0.4000 ****
2311 TO2   -75.301000  -61.598000   45.480000 T    771 GLP     0.6000 ****
2312 TO1   -82.312000  -67.334000   49.715000 T    771 GLP    -0.6000 ****
2313 HO1   -89.324000  -73.070000   53.950000 H    771 GLP     0.4000 ****
2314 TO2   -70.375000  -67.225000   45.399000 T    772 GLP     0.6000 ****
2315 TO1   -76.929000  -73.484000   49.627000 T    772 GLP    -0.6000 ****
2316 HO1   -83.482000  -79.744000   53.854000 H    772 GLP     0.4000 ****
2317 TO2   -65.033000  -72.456000   45.319000 T    773 GLP     0.6000 ****
2318 TO1   -71.088000  -79.203000   49.539000 T    773 GLP    -0.6000 ****
2319 HO1   -77.144000  -85.950000   53.759000 H    773 GLP     0.4000 ****
2320 TO2   -59.304000  -77.262000   45.239000 T    774 GLP     0.6000 ****
2321 TO1   -64.826000  -84.457000   49.451000 T    774 GLP    -0.6000 ****
2322 HO1   -70.349000  -91.651000   53.664000 H    774 GLP     0.4000 ****
2323 TO2   -53.224000  -81.614000   45.158000 T    775 GLP     0.6000 ****
2324 TO1   -58.180000  -89.214000   49.363000 T    775 GLP    -0.6000 ****
2325 HO1   -63.136000  -96.814000   53.568000 H    775 GLP     0.4000 ****
2326 TO2   -46.828000  -85.488000   45.078000 T    776 GLP     0.6000 ****
2327 TO1   -51.188000  -93.448000   49.276000 T    776 GLP    -0.6000 ****
2328 HO1   -55.549000 -101.408000   53.473000 H    776 GLP     0.4000 ****
2329 TO2   -40.153000  -88.859000   44.998000 T    777 GLP     0.6000 ****
2330 TO1   -43.892000  -97.133000   49.188000 T    777 GLP    -0.6000 ****
2331 HO1   -47.631000 -105.407000   53.378000 H    777 GLP     0.4000 ****
2332 TO2   -33.240000  -91.709000   44.917000 T    778 GLP     0.6000 ****
2333 TO1   -36.335000 -100.248000   49.100000 T    778 GLP    -0.6000 ****
2334 HO1   -39.431000 -108.788000   53.282000 H    778 GLP     0.4000 ****
2335 TO2   -26.129000  -94.021000   44.837000 T    779 GLP     0.6000 ****
2336 TO1   -28.562000 -102.776000   49.012000 T    779 GLP    -0.6000 ****
2337 HO1   -30.995000 -111.531000   53.187000 H    779 GLP     0.4000 ****
2338 TO2   -18.862000  -95.781000   44.757000 T    780 GLP     0.6000 ****
2339 TO1   -20.618000 -104.700000   48.924000 T    780 GLP    -0.6000 ****
2340 HO1   -22.375000 -113.619000   53.092000 H    780 GLP     0.4000 ****
2341 TO2   -11.481000  -96.980000   44.676000 T    781 GLP     0.6000 ****
2342 TO1   -12.550000 -106.011000   48.836000 T    781 GLP    -0.6000 ****
2343 HO1   -13.619000 -115.041000   52.996000 H    781 GLP     0.4000 ****
2344 TO2    -4.030000  -97.611000   44.596000 T    782 GLP     0.6000 ****
2345 TO1    -4.406000 -106.700000   48.748000 T    782 GLP    -0.6000 ****
2346 HO1    -4.781000 -115.790000   52.901000 H    782 GLP     0.4000 ****
2347 TO2     3.447000  -97.670000   44.516000 T    783 GLP     0.6000 ****
2348 TO1     3.768000 -106.765000   48.661000 T    783 GLP    -0.6000 ****
2349 HO1     4.089000 -115.860000   52.806000 H    783 GLP     0.4000 ****
2350 TO2    10.907000  -97.157000   44.435000 T    784 GLP     0.6000 ****
2351 TO1    11.922000 -106.204000   48.573000 T    784 GLP    -0.6000 ****
2352 HO1    12.938000 -115.251000   52.711000 H    784 GLP     0.4000 ****
2353 TO2    18.305000  -96.076000   44.355000 T    785 GLP     0.6000 ****
2354 TO1    20.010000 -105.022000   48.485000 T    785 GLP    -0.6000 ****
2355 HO1    21.715000 -113.968000   52.615000 H    785 GLP     0.4000 ****
2356 TO2    25.600000  -94.432000   44.274000 T    786 GLP     0.6000 ****
2357 TO1    27.984000 -103.225000   48.397000 T    786 GLP    -0.6000 ****
2358 HO1    30.368000 -112.018000   52.520000 H    786 GLP     0.4000 ****
2359 TO2    32.748000  -92.236000   44.194000 T    787 GLP     0.6000 ****
2360 TO1    35.797000 -100.824000   48.309000 T    787 GLP    -0.6000 ****
2361 HO1    38.846000 -109.413000   52.425000 H    787 GLP     0.4000 ****
2362 TO2    39.707000  -89.500000   44.114000 T    788 GLP     0.6000 ****
2363 TO1    43.404000  -97.834000   48.221000 T    788 GLP    -0.6000 ****
2364 HO1    47.102000 -106.168000   52.329000 H    788 GLP     0.4000 ****
2365 TO2    46.437000  -86.242000   44.033000 T    789 GLP     0.6000 ****
2366 TO1    50.761000  -94.272000   48.134000 T    789 GLP    -0.6000 ****
2367 HO1    55.085000 -102.303000   52.234000 H    789 GLP     0.4000 ****
2368 TO2    52.899000  -82.479000   43.953000 T    790 GLP     0.6000 ****
2369 TO1    57.825000  -90.159000   48.046000 T    790 GLP    -0.6000 ****
2370 HO1    62.750000  -97.840000   52.139000 H    790 GLP     0.4000 ****
2371 TO2    59.055000  -78.235000   43.873000 T    791 GLP     0.6000 ****
2372 TO1    64.554000  -85.520000   47.958000 T    791 GLP    -0.6000 ****
2373 HO1    70.053000  -92.805000   52.043000 H    791 GLP     0.4000 ****
2374 TO2    64.869000  -73.533000   43.792000 T    792 GLP     0.6000 ****
2375 TO1    70.910000  -80.381000   47.870000 T    792 GLP    -0.6000 ****
2376 HO1    76.950000  -87.228000   51.948000 H    792 GLP     0.4000 ****
2377 TO2    70.309000  -68.403000   43.712000 T    793 GLP     0.6000 ****
2378 TO1    76.856000  -74.772000   47.782000 T    793 GLP    -0.6000 ****
2379 HO1    83.403000  -81.141000   51.853000 H    793 GLP     0.4000 ****
2380 TO2    75.341000  -62.872000   43.632000 T    794 GLP     0.6000 ****
2381 TO1    82.357000  -68.727000   47.694000 T    794 GLP    -0.6000 ****
2382 HO1    89.373000  -74.581000   51.757000 H    794 GLP     0.4000 ****
2383 TO2    79.938000  -56.975000   43.551000 T    795 GLP     0.6000 ****
2384 TO1    87.382000  -62.280000   47.607000 T    795 GLP    -0.6000 ****
2385 HO1    94.826000  -67.585000   51.662000 H    795 GLP     0.4000 ****
2386 TO2    84.073000  -50.744000   43.471000 T    796 GLP     0.6000 ****
2387 TO1    91.902000  -55.470000   47.519000 T    796 GLP    -0.6000 ****
2388 HO1    99.730000  -60.195000   51.567000 H    796 GLP     0.4000 ****
2389 TO2    87.721000  -44.218000   43.391000 T    797 GLP     0.6000 ****
2390 TO1    95.890000  -48.335000   47.431000 T    797 GLP    -0.6000 ****
2391 HO1   104.058000  -52.452000   51.471000 H    797 GLP     0.4000 ****
2392 TO2    90.863000  -37.432000   43.310000 T    798 GLP     0.6000 ****
2393 TO1    99.324000  -40.918000   47.343000 T    798 GLP    -0.6000 ****
2394 HO1   107.785000  -44.403000   51.376000 H    798 GLP     0.4000 ****
2395 TO2    93.479000  -30.427000   43.230000 T    799 GLP     0.6000 ****
2396 TO1   102.184000  -33.261000   47.255000 T    799 GLP    -0.6000 ****
2397 HO1   110.888000  -36.094000   51.281000 H    799 GLP     0.4000 ****
2398 TO2    95.555000  -23.244000   43.150000 T    800 GLP     0.6000 ****
2399 TO1   104.453000  -25.408000   47.167000 T    800 GLP    -0.6000 ****
2400 HO1   113.351000  -27.573000   51.185000 H    800 GLP     0.4000 ****
2401 TO2    97.080000  -15.923000   43.069000 T    801 GLP     0.6000 ****
2402 TO1   106.119000  -17.406000   47.080000 T    801 GLP    -0.6000 ****
2403 HO1   115.159000  -18.889000   51.090000 H    801 GLP     0.4000 ****
2404 TO2    98.044000   -8.508000   42.989000 T    802 GLP     0.6000 ****
2405 TO1   107.173000   -9.301000   46.992000 T    802 GLP    -0.6000 ****
2406 HO1   116.303000  -10.093000   50.995000 H    802 GLP     0.4000 ****
2407 TO2    98.442000   -1.042000   42.908000 T    803 GLP     0.6000 ****
2408 TO1   107.608000   -1.139000   46.904000 T    803 GLP    -0.6000 ****
2409 HO1   116.775000   -1.236000   50.899000 H    803 GLP     0.4000 ****
2410 TO2    98.272000    6.434000   42.828000 T    804 GLP     0.6000 ****
2411 TO1   107.422000    7.033000   46.816000 T    804 GLP    -0.6000 ****
2412 HO1   116.573000    7.632000   50.804000 H    804 GLP     0.4000 ****
2413 TO2    97.535000   13.875000   42.748000 T    805 GLP     0.6000 ****
2414 TO1   106.617000   15.167000   46.728000 T    805 GLP    -0.6000 ****
2415 HO1   115.699000   16.459000   50.709000 H    805 GLP     0.4000 ****
2416 TO2    96.236000   21.239000   42.667000 T    806 GLP     0.6000 ****
2417 TO1   105.197000   23.216000   46.640000 T    806 GLP    -0.6000 ****
2418 HO1   114.159000   25.194000   50.614000 H    806 GLP     0.4000 ****
2419 TO2    94.382000   28.483000   42.587000 T    807 GLP     0.6000 ****
2420 TO1   103.171000   31.135000   46.553000 T    807 GLP    -0.6000 ****
2421 HO1   111.960000   33.787000   50.518000 H    807 GLP     0.4000 ****
2422 TO2    91.985000   35.565000   42.507000 T    808 GLP     0.6000 ****
2423 TO1   100.550000   38.877000   46.465000 T    808 GLP    -0.6000 ****
2424 HO1   109.116000   42.189000   50.423000 H    808 GLP     0.4000 ****
2425 TO2    89.058000   42.446000   42.426000 T    809 GLP     0.6000 ****
2426 TO1    97.351000   46.398000   46.377000 T    809 GLP    -0.6000 ****
2427 HO1   105.644000   50.351000   50.328000 H    809 GLP     0.4000 ****
2428 TO2    85.618000   49.085000   42.346000 T    810 GLP     0.6000 ****
2429 TO1    93.591000   53.656000   46.289000 T    810 GLP    -0.6000 ****
2430 HO1   101.563000   58.226000   50.232000 H    810 GLP     0.4000 ****
2431 TO2    81.685000   55.445000   42.266000 T    811 GLP     0.6000 ****
2432 TO1    89.292000   60.608000   46.201000 T    811 GLP    -0.6000 ****
2433 HO1    96.898000   65.770000   50.137000 H    811 GLP     0.4000 ****
2434 TO2    77.282000   61.488000   42.185000 T    812 GLP     0.6000 ****
2435 TO1    84.479000   67.214000   46.113000 T    812 GLP    -0.6000 ****
2436 HO1    91.675000   72.940000   50.042000 H    812 GLP     0.4000 ****
2437 TO2    72.435000   67.181000   42.105000 T    813 GLP     0.6000 ****
2438 TO1    79.180000   73.437000   46.026000 T    813 GLP    -0.6000 ****
2439 HO1    85.925000   79.693000   49.946000 H    813 GLP     0.4000 ****
2440 TO2    67.170000   72.492000   42.025000 T    814 GLP     0.6000 ****
2441 TO1    73.425000   79.242000   45.938000 T    814 GLP    -0.6000 ****
2442 HO1    79.680000   85.992000   49.851000 H    814 GLP     0.4000 ****
2443 TO2    61.520000   77.389000   41.944000 T    815 GLP     0.6000 ****
2444 TO1    67.248000   84.595000   45.850000 T    815 GLP    -0.6000 ****
2445 HO1    72.977000   91.801000   49.756000 H    815 GLP     0.4000 ****
2446 TO2    55.515000   81.844000   41.864000 T    816 GLP     0.6000 ****
2447 TO1    60.684000   89.465000   45.762000 T    816 GLP    -0.6000 ****
2448 HO1    65.854000   97.087000   49.660000 H    816 GLP     0.4000 ****
2449 TO2    49.190000   85.834000   41.784000 T    817 GLP     0.6000 ****
2450 TO1    53.771000   93.826000   45.674000 T    817 GLP    -0.6000 ****
2451 HO1    58.351000  101.819000   49.565000 H    817 GLP     0.4000 ****
2452 TO2    42.583000   89.334000   41.703000 T    818 GLP     0.6000 ****
2453 TO1    46.548000   97.652000   45.586000 T    818 GLP    -0.6000 ****
2454 HO1    50.513000  105.971000   49.470000 H    818 GLP     0.4000 ****
2455 TO2    35.730000   92.325000   41.623000 T    819 GLP     0.6000 ****
2456 TO1    39.057000  100.922000   45.499000 T    819 GLP    -0.6000 ****
2457 HO1    42.384000  109.519000   49.374000 H    819 GLP     0.4000 ****
2458 TO2    28.671000   94.790000   41.542000 T    820 GLP     0.6000 ****
2459 TO1    31.340000  103.617000   45.411000 T    820 GLP    -0.6000 ****
2460 HO1    34.010000  112.443000   49.279000 H    820 GLP     0.4000 ****
2461 TO2    21.445000   96.716000   41.462000 T    821 GLP     0.6000 ****
2462 TO1    23.442000  105.722000   45.323000 T    821 GLP    -0.6000 ****
2463 HO1    25.439000  114.728000   49.184000 H    821 GLP     0.4000 ****
2464 TO2    14.096000   98.091000   41.382000 T    822 GLP     0.6000 ****
2465 TO1    15.408000  107.225000   45.235000 T    822 GLP    -0.6000 ****
2466 HO1    16.721000  116.359000   49.088000 H    822 GLP     0.4000 ****
2467 TO2     6.663000   98.908000   41.301000 T    823 GLP     0.6000 ****
2468 TO1     7.283000  108.118000   45.147000 T    823 GLP    -0.6000 ****
2469 HO1     7.904000  117.328000   48.993000 H    823 GLP     0.4000 ****
2470 TO2    -0.810000   99.162000   41.221000 T    824 GLP     0.6000 ****
2471 TO1    -0.885000  108.396000   45.059000 T    824 GLP    -0.6000 ****
2472 HO1    -0.961000  117.630000   48.898000 H    824 GLP     0.4000 ****
2473 TO2    -8.281000   98.853000   41.141000 T    825 GLP     0.6000 ****
2474 TO1    -9.052000  108.057000   44.972000 T    825 GLP    -0.6000 ****
2475 HO1    -9.823000  117.262000   48.802000 H    825 GLP     0.4000 ****
2476 TO2   -15.707000   97.981000   41.060000 T    826 GLP     0.6000 ****
2477 TO1   -17.170000  107.105000   44.884000 T    826 GLP    -0.6000 ****
2478 HO1   -18.633000  116.229000   48.707000 H    826 GLP     0.4000 ****
2479 TO2   -23.047000   96.553000   40.980000 T    827 GLP     0.6000 ****
2480 TO1   -25.193000  105.544000   44.796000 T    827 GLP    -0.6000 ****
2481 HO1   -27.339000  114.534000   48.612000 H    827 GLP     0.4000 ****
2482 TO2   -30.258000   94.576000   40.900000 T    828 GLP     0.6000 ****
2483 TO1   -33.076000  103.383000   44.708000 T    828 GLP    -0.6000 ****
2484 HO1   -35.893000  112.189000   48.517000 H    828 GLP     0.4000 ****
2485 TO2   -37.300000   92.062000   40.819000 T    829 GLP     0.6000 ****
2486 TO1   -40.774000  100.635000   44.620000 T    829 GLP    -0.6000 ****
2487 HO1   -44.247000  109.207000   48.421000 H    829 GLP     0.4000 ****
2488 TO2   -44.133000   89.026000   40.739000 T    830 GLP     0.6000 ****
2489 TO1   -48.243000   97.315000   44.532000 T    830 GLP    -0.6000 ****
2490 HO1   -52.353000  105.605000   48.326000 H    830 GLP     0.4000 ****
2491 TO2   -50.719000   85.484000   40.659000 T    831 GLP     0.6000 ****
2492 TO1   -55.441000   93.444000   44.445000 T    831 GLP    -0.6000 ****
2493 HO1   -60.164000  101.404000   48.231000 H    831 GLP     0.4000 ****
2494 TO2   -57.019000   81.457000   40.578000 T    832 GLP     0.6000 ****
2495 TO1   -62.328000   89.042000   44.357000 T    832 GLP    -0.6000 ****
2496 HO1   -67.638000   96.627000   48.135000 H    832 GLP     0.4000 ****
2497 TO2   -62.999000   76.968000   40.498000 T    833 GLP     0.6000 ****
2498 TO1   -68.865000   84.135000   44.269000 T    833 GLP    -0.6000 ****
2499 HO1   -74.731000   91.302000   48.040000 H    833 GLP     0.4000 ****
2500 TO2   -68.625000   72.042000   40.418000 T    834 GLP     0.6000 ****
2501 TO1   -75.015000   78.750000   44.181000 T    834 GLP    -0.6000 ****
2502 HO1   -81.405000   85.459000   47.945000 H    834 GLP     0.4000 ****
2503 TO2   -73.864000   66.708000   40.337000 T    835 GLP     0.6000 ****
2504 TO1   -80.742000   72.919000   44.093000 T    835 GLP    -0.6000 ****
2505 HO1   -87.621000   79.131000   47.849000 H    835 GLP     0.4000 ****
2506 TO2   -78.689000   60.995000   40.257000 T    836 GLP     0.6000 ****
2507 TO1   -86.016000   66.675000   44.005000 T    836 GLP    -0.6000 ****
2508 HO1   -93.344000   72.354000   47.754000 H    836 GLP     0.4000 ****
2509 TO2   -83.071000   54.936000   40.176000 T    837 GLP     0.6000 ****
2510 TO1   -90.806000   60.052000   43.918000 T    837 GLP    -0.6000 ****
2511 HO1   -98.542000   65.167000   47.659000 H    837 GLP     0.4000 ****
2512 TO2   -86.986000   48.566000   40.096000 T    838 GLP     0.6000 ****
2513 TO1   -95.086000   53.088000   43.830000 T    838 GLP    -0.6000 ****
2514 HO1  -103.186000   57.611000   47.563000 H    838 GLP     0.4000 ****
2515 TO2   -90.413000   41.920000   40.016000 T    839 GLP     0.6000 ****
2516 TO1   -98.831000   45.823000   43.742000 T    839 GLP    -0.6000 ****
2517 HO1  -107.250000   49.727000   47.468000 H    839 GLP     0.4000 ****
2518 TO2   -93.331000   35.036000   39.935000 T    840 GLP     0.6000 ****
2519 TO1  -102.021000   38.298000   43.654000 T    840 GLP    -0.6000 ****
2520 HO1  -110.712000   41.560000   47.373000 H    840 GLP     0.4000 ****
2521 TO2   -95.725000   27.952000   39.855000 T    841 GLP     0.6000 ****
2522 TO1  -104.638000   30.555000   43.566000 T    841 GLP    -0.6000 ****
2523 HO1  -113.552000   33.157000   47.277000 H    841 GLP     0.4000 ****
2524 TO2   -97.581000   20.709000   39.775000 T    842 GLP     0.6000 ****
2525 TO1  -106.668000   22.637000   43.478000 T    842 GLP    -0.6000 ****
2526 HO1  -115.754000   24.565000   47.182000 H    842 GLP     0.4000 ****
2527 TO2   -98.890000   13.347000   39.694000 T    843 GLP     0.6000 ****
2528 TO1  -108.098000   14.590000   43.391000 T    843 GLP    -0.6000 ****
2529 HO1  -117.306000   15.832000   47.087000 H    843 GLP     0.4000 ****
2530 TO2   -99.643000    5.908000   39.614000 T    844 GLP     0.6000 ****
2531 TO1  -108.922000    6.458000   43.303000 T    844 GLP    -0.6000 ****
2532 HO1  -118.200000    7.008000   46.991000 H    844 GLP     0.4000 ****
2533 TO2   -99.838000   -1.567000   39.534000 T    845 GLP     0.6000 ****
2534 TO1  -109.134000   -1.713000   43.215000 T    845 GLP    -0.6000 ****
2535 HO1  -118.431000   -1.859000   46.896000 H    845 GLP     0.4000 ****
2536 TO2   -99.472000   -9.036000   39.453000 T    846 GLP     0.6000 ****
2537 TO1  -108.735000   -9.877000   43.127000 T    846 GLP    -0.6000 ****
2538 HO1  -117.998000  -10.718000   46.801000 H    846 GLP     0.4000 ****
2539 TO2   -98.549000  -16.456000   39.373000 T    847 GLP     0.6000 ****
2540 TO1  -107.726000  -17.988000   43.039000 T    847 GLP    -0.6000 ****
2541 HO1  -116.902000  -19.520000   46.706000 H    847 GLP     0.4000 ****
2542 TO2   -97.074000  -23.786000   39.293000 T    848 GLP     0.6000 ****
2543 TO1  -106.113000  -26.001000   42.951000 T    848 GLP    -0.6000 ****
2544 HO1  -115.152000  -28.216000   46.610000 H    848 GLP     0.4000 ****
2545 TO2   -95.054000  -30.985000   39.212000 T    849 GLP     0.6000 ****
2546 TO1  -103.905000  -33.871000   42.864000 T    849 GLP    -0.6000 ****
2547 HO1  -112.756000  -36.756000   46.515000 H    849 GLP     0.4000 ****
2548 TO2   -92.502000  -38.014000   39.132000 T    850 GLP     0.6000 ****
2549 TO1  -101.116000  -41.553000   42.776000 T    850 GLP    -0.6000 ****
2550 HO1  -109.729000  -45.093000   46.420000 H    850 GLP     0.4000 ****
2551 TO2   -89.432000  -44.832000   39.052000 T    851 GLP     0.6000 ****
2552 TO1   -97.760000  -49.006000   42.688000 T    851 GLP    -0.6000 ****
2553 HO1  -106.087000  -53.181000   46.324000 H    851 GLP     0.4000 ****
2554 TO2   -85.861000  -51.401000   38.971000 T    852 GLP     0.6000 ****
2555 TO1   -93.856000  -56.188000   42.600000 T    852 GLP    -0.6000 ****
2556 HO1  -101.851000  -60.974000   46.229000 H    852 GLP     0.4000 ****
2557 TO2   -81.810000  -57.686000   38.891000 T    853 GLP     0.6000 ****
2558 TO1   -89.428000  -63.057000   42.512000 T    853 GLP    -0.6000 ****
2559 HO1   -97.045000  -68.429000   46.134000 H    853 GLP     0.4000 ****
2560 TO2   -77.300000  -63.650000   38.810000 T    854 GLP     0.6000 ****
2561 TO1   -84.498000  -69.577000   42.424000 T    854 GLP    -0.6000 ****
2562 HO1   -91.696000  -75.504000   46.038000 H    854 GLP     0.4000 ****
2563 TO2   -72.359000  -69.262000   38.730000 T    855 GLP     0.6000 ****
2564 TO1   -79.096000  -75.711000   42.337000 T    855 GLP    -0.6000 ****
2565 HO1   -85.834000  -82.161000   45.943000 H    855 GLP     0.4000 ****
2566 TO2   -67.012000  -74.489000   38.650000 T    856 GLP     0.6000 ****
2567 TO1   -73.252000  -81.425000   42.249000 T    856 GLP    -0.6000 ****
2568 HO1   -79.492000  -88.361000   45.848000 H    856 GLP     0.4000 ****
2569 TO2   -61.290000  -79.303000   38.569000 T    857 GLP     0.6000 ****
2570 TO1   -66.997000  -86.687000   42.161000 T    857 GLP    -0.6000 ****
2571 HO1   -72.704000  -94.071000   45.752000 H    857 GLP     0.4000 ****
2572 TO2   -55.225000  -83.676000   38.489000 T    858 GLP     0.6000 ****
2573 TO1   -60.368000  -91.468000   42.073000 T    858 GLP    -0.6000 ****
2574 HO1   -65.510000  -99.260000   45.657000 H    858 GLP     0.4000 ****
2575 TO2   -48.852000  -87.586000   38.409000 T    859 GLP     0.6000 ****
2576 TO1   -53.401000  -95.741000   41.985000 T    859 GLP    -0.6000 ****
2577 HO1   -57.949000 -103.897000   45.562000 H    859 GLP     0.4000 ****
2578 TO2   -42.204000  -91.009000   38.328000 T    860 GLP     0.6000 ****
2579 TO1   -46.134000  -99.484000   41.897000 T    860 GLP    -0.6000 ****
2580 HO1   -50.064000 -107.958000   45.466000 H    860 GLP     0.4000 ****
2581 TO2   -35.320000  -93.928000   38.248000 T    861 GLP     0.6000 ****
2582 TO1   -38.609000 -102.675000   41.810000 T    861 GLP    -0.6000 ****
2583 HO1   -41.898000 -111.421000   45.371000 H    861 GLP     0.4000 ****
2584 TO2   -28.238000  -96.327000   38.168000 T    862 GLP     0.6000 ****
2585 TO1   -30.867000 -105.296000   41.722000 T    862 GLP    -0.6000 ****
2586 HO1   -33.497000 -114.266000   45.276000 H    862 GLP     0.4000 ****
2587 TO2   -20.997000  -98.191000   38.087000 T    863 GLP     0.6000 ****
2588 TO1   -22.952000 -107.334000   41.634000 T    863 GLP    -0.6000 ****
2589 HO1   -24.907000 -116.477000   45.180000 H    863 GLP     0.4000 ****
2590 TO2   -13.637000  -99.511000   38.007000 T    864 GLP     0.6000 ****
2591 TO1   -14.907000 -108.777000   41.546000 T    864 GLP    -0.6000 ****
2592 HO1   -16.177000 -118.044000   45.085000 H    864 GLP     0.4000 ****
2593 TO2    -6.200000 -100.280000   37.927000 T    865 GLP     0.6000 ****
2594 TO1    -6.777000 -109.618000   41.458000 T    865 GLP    -0.6000 ****
2595 HO1    -7.354000 -118.956000   44.990000 H    865 GLP     0.4000 ****
2596 TO2     1.275000 -100.494000   37.846000 T    866 GLP     0.6000 ****
2597 TO1     1.393000 -109.852000   41.370000 T    866 GLP    -0.6000 ****
2598 HO1     1.512000 -119.209000   44.894000 H    866 GLP     0.4000 ****
2599 TO2     8.744000 -100.151000   37.766000 T    867 GLP     0.6000 ****
2600 TO1     9.558000 -109.477000   41.283000 T    867 GLP    -0.6000 ****
2601 HO1    10.373000 -118.803000   44.799000 H    867 GLP     0.4000 ****
2602 TO2    16.167000  -99.254000   37.686000 T    868 GLP     0.6000 ****
2603 TO1    17.673000 -108.496000   41.195000 T    868 GLP    -0.6000 ****
2604 HO1    19.178000 -117.739000   44.704000 H    868 GLP     0.4000 ****
2605 TO2    23.503000  -97.808000   37.605000 T    869 GLP     0.6000 ****
2606 TO1    25.692000 -106.916000   41.107000 T    869 GLP    -0.6000 ****
2607 HO1    27.881000 -116.023000   44.609000 H    869 GLP     0.4000 ****
2608 TO2    30.712000  -95.821000   37.525000 T    870 GLP     0.6000 ****
2609 TO1    33.572000 -104.743000   41.019000 T    870 GLP    -0.6000 ****
2610 HO1    36.431000 -113.666000   44.513000 H    870 GLP     0.4000 ****
2611 TO2    37.753000  -93.304000   37.444000 T    871 GLP     0.6000 ****
2612 TO1    41.268000 -101.992000   40.931000 T    871 GLP    -0.6000 ****
2613 HO1    44.784000 -110.680000   44.418000 H    871 GLP     0.4000 ****
2614 TO2    44.587000  -90.271000   37.364000 T    872 GLP     0.6000 ****
2615 TO1    48.739000  -98.677000   40.843000 T    872 GLP    -0.6000 ****
2616 HO1    52.891000 -107.083000   44.323000 H    872 GLP     0.4000 ****
2617 TO2    51.178000  -86.739000   37.284000 T    873 GLP     0.6000 ****
2618 TO1    55.943000  -94.816000   40.756000 T    873 GLP    -0.6000 ****
2619 HO1    60.709000 -102.893000   44.227000 H    873 GLP     0.4000 ****
2620 TO2    57.488000  -82.728000   37.203000 T    874 GLP     0.6000 ****
2621 TO1    62.841000  -90.432000   40.668000 T    874 GLP    -0.6000 ****
2622 HO1    68.194000  -98.135000   44.132000 H    874 GLP     0.4000 ****
2623 TO2    63.484000  -78.260000   37.123000 T    875 GLP     0.6000 ****
2624 TO1    69.395000  -85.548000   40.580000 T    875 GLP    -0.6000 ****
2625 HO1    75.306000  -92.835000   44.037000 H    875 GLP     0.4000 ****
2626 TO2    69.131000  -73.360000   37.043000 T    876 GLP     0.6000 ****
2627 TO1    75.569000  -80.191000   40.492000 T    876 GLP    -0.6000 ****
2628 HO1    82.006000  -87.022000   43.941000 H    876 GLP     0.4000 ****
2629 TO2    74.400000  -68.054000   36.962000 T    877 GLP     0.6000 ****
2630 TO1    81.328000  -74.391000   40.404000 T    877 GLP    -0.6000 ****
2631 HO1    88.256000  -80.728000   43.846000 H    877 GLP     0.4000 ****
2632 TO2    79.261000  -62.373000   36.882000 T    878 GLP     0.6000 ****
2633 TO1    86.642000  -68.181000   40.316000 T    878 GLP    -0.6000 ****
2634 HO1    94.022000  -73.989000   43.751000 H    878 GLP     0.4000 ****
2635 TO2    83.688000  -56.347000   36.802000 T    879 GLP     0.6000 ****
2636 TO1    91.481000  -61.594000   40.228000 T    879 GLP    -0.6000 ****
2637 HO1    99.273000  -66.841000   43.655000 H    879 GLP     0.4000 ****
2638 TO2    87.656000  -50.009000   36.721000 T    880 GLP     0.6000 ****
2639 TO1    95.818000  -54.666000   40.141000 T    880 GLP    -0.6000 ****
2640 HO1   103.981000  -59.323000   43.560000 H    880 GLP     0.4000 ****
2641 TO2    91.144000  -43.396000   36.641000 T    881 GLP     0.6000 ****
2642 TO1    99.631000  -47.436000   40.053000 T    881 GLP    -0.6000 ****
2643 HO1   108.118000  -51.477000   43.465000 H    881 GLP     0.4000 ****
2644 TO2    94.133000  -36.542000   36.561000 T    882 GLP     0.6000 ****
2645 TO1   102.898000  -39.944000   39.965000 T    882 GLP    -0.6000 ****
2646 HO1   111.664000  -43.347000   43.369000 H    882 GLP     0.4000 ****
2647 TO2    96.606000  -29.485000   36.480000 T    883 GLP     0.6000 ****
2648 TO1   105.602000  -32.231000   39.877000 T    883 GLP    -0.6000 ****
2649 HO1   114.598000  -34.977000   43.274000 H    883 GLP     0.4000 ****
2650 TO2    98.551000  -22.266000   36.400000 T    884 GLP     0.6000 ****
2651 TO1   107.728000  -24.339000   39.789000 T    884 GLP    -0.6000 ****
2652 HO1   116.904000  -26.412000   43.179000 H    884 GLP     0.4000 ****
2653 TO2    99.956000  -14.922000   36.320000 T    885 GLP     0.6000 ****
2654 TO1   109.264000  -16.311000   39.701000 T    885 GLP    -0.6000 ****
2655 HO1   118.571000  -17.700000   43.083000 H    885 GLP     0.4000 ****
2656 TO2   100.814000   -7.494000   36.239000 T    886 GLP     0.6000 ****
2657 TO1   110.202000   -8.192000   39.614000 T    886 GLP    -0.6000 ****
2658 HO1   119.589000   -8.889000   42.988000 H    886 GLP     0.4000 ****
2659 TO2   101.121000   -0.023000   36.159000 T    887 GLP     0.6000 ****
2660 TO1   110.537000   -0.025000   39.526000 T    887 GLP    -0.6000 ****
2661 HO1   119.953000   -0.027000   42.893000 H    887 GLP     0.4000 ****
2662 TO2   100.875000    7.450000   36.078000 T    888 GLP     0.6000 ****
2663 TO1   110.268000    8.144000   39.438000 T    888 GLP    -0.6000 ****
2664 HO1   119.662000    8.838000   42.797000 H    888 GLP     0.4000 ****
2665 TO2   100.078000   14.885000   35.998000 T    889 GLP     0.6000 ****
2666 TO1   109.397000   16.271000   39.350000 T    889 GLP    -0.6000 ****
2667 HO1   118.716000   17.657000   42.702000 H    889 GLP     0.4000 ****
2668 TO2    98.733000   22.240000   35.918000 T    890 GLP     0.6000 ****
2669 TO1   107.927000   24.311000   39.262000 T    890 GLP    -0.6000 ****
2670 HO1   117.121000   26.382000   42.607000 H    890 GLP     0.4000 ****
2671 TO2    96.849000   29.476000   35.837000 T    891 GLP     0.6000 ****
2672 TO1   105.868000   32.221000   39.174000 T    891 GLP    -0.6000 ****
2673 HO1   114.886000   34.966000   42.512000 H    891 GLP     0.4000 ****
2674 TO2    94.437000   36.553000   35.757000 T    892 GLP     0.6000 ****
2675 TO1   103.230000   39.957000   39.087000 T    892 GLP    -0.6000 ****
2676 HO1   112.024000   43.361000   42.416000 H    892 GLP     0.4000 ****
2677 TO2    91.508000   43.433000   35.677000 T    893 GLP     0.6000 ****
2678 TO1   100.029000   47.478000   38.999000 T    893 GLP    -0.6000 ****
2679 HO1   108.550000   51.522000   42.321000 H    893 GLP     0.4000 ****
2680 TO2    88.080000   50.078000   35.596000 T    894 GLP     0.6000 ****
2681 TO1    96.281000   54.741000   38.911000 T    894 GLP    -0.6000 ****
2682 HO1   104.483000   59.404000   42.226000 H    894 GLP     0.4000 ****
2683 TO2    84.171000   56.452000   35.516000 T    895 GLP     0.6000 ****
2684 TO1    92.009000   61.709000   38.823000 T    895 GLP    -0.6000 ****
2685 HO1    99.846000   66.966000   42.130000 H    895 GLP     0.4000 ****
2686 TO2    79.803000   62.521000   35.436000 T    896 GLP     0.6000 ****
2687 TO1    87.234000   68.342000   38.735000 T    896 GLP    -0.6000 ****
2688 HO1    94.664000   74.164000   42.035000 H    896 GLP     0.4000 ****
2689 TO2    74.999000   68.251000   35.355000 T    897 GLP     0.6000 ****
2690 TO1    81.982000   74.606000   38.647000 T    897 GLP    -0.6000 ****
2691 HO1    88.966000   80.961000   41.940000 H    897 GLP     0.4000 ****
2692 TO2    69.786000   73.611000   35.275000 T    898 GLP     0.6000 ****
2693 TO1    76.284000   80.465000   38.560000 T    898 GLP    -0.6000 ****
2694 HO1    82.782000   87.320000   41.844000 H    898 GLP     0.4000 ****
2695 TO2    64.192000   78.573000   35.195000 T    899 GLP     0.6000 ****
2696 TO1    70.170000   85.889000   38.472000 T    899 GLP    -0.6000 ****
2697 HO1    76.147000   93.206000   41.749000 H    899 GLP     0.4000 ****
2698 TO2    58.248000   83.109000   35.114000 T    900 GLP     0.6000 ****
2699 TO1    63.672000   90.848000   38.384000 T    900 GLP    -0.6000 ****
2700 HO1    69.096000   98.587000   41.654000 H    900 GLP     0.4000 ****
2701 TO2    51.986000   87.195000   35.034000 T    901 GLP     0.6000 ****
2702 TO1    56.827000   95.315000   38.296000 T    901 GLP    -0.6000 ****
2703 HO1    61.668000  103.434000   41.558000 H    901 GLP     0.4000 ****
2704 TO2    45.441000   90.809000   34.954000 T    902 GLP     0.6000 ****
2705 TO1    49.672000   99.265000   38.208000 T    902 GLP    -0.6000 ****
2706 HO1    53.903000  107.721000   41.463000 H    902 GLP     0.4000 ****
2707 TO2    38.647000   93.932000   34.873000 T    903 GLP     0.6000 ****
2708 TO1    42.245000  102.679000   38.120000 T    903 GLP    -0.6000 ****
2709 HO1    45.844000  111.426000   41.368000 H    903 GLP     0.4000 ****
2710 TO2    31.642000   96.547000   34.793000 T    904 GLP     0.6000 ****
2711 TO1    34.588000  105.537000   38.033000 T    904 GLP    -0.6000 ****
2712 HO1    37.534000  114.527000   41.272000 H    904 GLP     0.4000 ****
2713 TO2    24.463000   98.639000   34.712000 T    905 GLP     0.6000 ****
2714 TO1    26.741000  107.824000   37.945000 T    905 GLP    -0.6000 ****
2715 HO1    29.019000  117.008000   41.177000 H    905 GLP     0.4000 ****
2716 TO2    17.150000  100.197000   34.632000 T    906 GLP     0.6000 ****
2717 TO1    18.747000  109.527000   37.857000 T    906 GLP    -0.6000 ****
2718 HO1    20.344000  118.857000   41.082000 H    906 GLP     0.4000 ****
2719 TO2     9.742000  101.214000   34.552000 T    907 GLP     0.6000 ****
2720 TO1    10.650000  110.639000   37.769000 T    907 GLP    -0.6000 ****
2721 HO1    11.557000  120.063000   40.986000 H    907 GLP     0.4000 ****
2722 TO2     2.280000  101.683000   34.471000 T    908 GLP     0.6000 ****
2723 TO1     2.492000  111.152000   37.681000 T    908 GLP    -0.6000 ****
2724 HO1     2.705000  120.620000   40.891000 H    908 GLP     0.4000 ****
2725 TO2    -5.197000  101.603000   34.391000 T    909 GLP     0.6000 ****
2726 TO1    -5.681000  111.064000   37.593000 T    909 GLP    -0.6000 ****
2727 HO1    -6.165000  120.525000   40.796000 H    909 GLP     0.4000 ****
2728 TO2   -12.647000  100.974000   34.311000 T    910 GLP     0.6000 ****
2729 TO1   -13.825000  110.377000   37.506000 T    910 GLP    -0.6000 ****
2730 HO1   -15.003000  119.779000   40.701000 H    910 GLP     0.4000 ****
2731 TO2   -20.032000   99.800000   34.230000 T    911 GLP     0.6000 ****
2732 TO1   -21.897000  109.093000   37.418000 T    911 GLP    -0.6000 ****
2733 HO1   -23.762000  118.386000   40.605000 H    911 GLP     0.4000 ****
2734 TO2   -27.310000   98.086000   34.150000 T    912 GLP     0.6000 ****
2735 TO1   -29.853000  107.220000   37.330000 T    912 GLP    -0.6000 ****
2736 HO1   -32.396000  116.353000   40.510000 H    912 GLP     0.4000 ****
2737 TO2   -34.443000   95.843000   34.070000 T    913 GLP     0.6000 ****
2738 TO1   -37.650000  104.768000   37.242000 T    913 GLP    -0.6000 ****
2739 HO1   -40.857000  113.693000   40.415000 H    913 GLP     0.4000 ****
2740 TO2   -41.392000   93.083000   33.989000 T    914 GLP     0.6000 ****
2741 TO1   -45.246000  101.750000   37.154000 T    914 GLP    -0.6000 ****
2742 HO1   -49.100000  110.418000   40.319000 H    914 GLP     0.4000 ****
2743 TO2   -48.119000   89.820000   33.909000 T    915 GLP     0.6000 ****
2744 TO1   -52.600000   98.184000   37.066000 T    915 GLP    -0.6000 ****
2745 HO1   -57.081000  106.548000   40.224000 H    915 GLP     0.4000 ****
2746 TO2   -54.590000   86.073000   33.829000 T    916 GLP     0.6000 ****
2747 TO1   -59.673000   94.088000   36.979000 T    916 GLP    -0.6000 ****
2748 HO1   -64.756000  102.103000   40.129000 H    916 GLP     0.4000 ****
2749 TO2   -60.768000   81.861000   33.748000 T    917 GLP     0.6000 ****
2750 TO1   -66.427000   89.484000   36.891000 T    917 GLP    -0.6000 ****
2751 HO1   -72.085000   97.107000   40.033000 H    917 GLP     0.4000 ****
2752 TO2   -66.621000   77.208000   33.668000 T    918 GLP     0.6000 ****
2753 TO1   -72.824000   84.398000   36.803000 T    918 GLP    -0.6000 ****
2754 HO1   -79.028000   91.587000   39.938000 H    918 GLP     0.4000 ****
2755 TO2   -72.117000   72.139000   33.588000 T    919 GLP     0.6000 ****
2756 TO1   -78.832000   78.856000   36.715000 T    919 GLP    -0.6000 ****
2757 HO1   -85.548000   85.573000   39.843000 H    919 GLP     0.4000 ****
2758 TO2   -77.227000   66.680000   33.507000 T    920 GLP     0.6000 ****
2759 TO1   -84.418000   72.889000   36.627000 T    920 GLP    -0.6000 ****
2760 HO1   -91.609000   79.098000   39.747000 H    920 GLP     0.4000 ****
2761 TO2   -81.923000   60.862000   33.427000 T    921 GLP     0.6000 ****
2762 TO1   -89.552000   66.529000   36.539000 T    921 GLP    -0.6000 ****
2763 HO1   -97.180000   72.197000   39.652000 H    921 GLP     0.4000 ****
2764 TO2   -86.181000   54.715000   33.346000 T    922 GLP     0.6000 ****
2765 TO1   -94.206000   59.810000   36.452000 T    922 GLP    -0.6000 ****
2766 HO1  -102.231000   64.905000   39.557000 H    922 GLP     0.4000 ****
2767 TO2   -89.978000   48.274000   33.266000 T    923 GLP     0.6000 ****
2768 TO1   -98.356000   52.769000   36.364000 T    923 GLP    -0.6000 ****
2769 HO1  -106.735000   57.264000   39.461000 H    923 GLP     0.4000 ****
2770 TO2   -93.292000   41.572000   33.186000 T    924 GLP     0.6000 ****
2771 TO1  -101.980000   45.443000   36.276000 T    924 GLP    -0.6000 ****
2772 HO1  -110.667000   49.314000   39.366000 H    924 GLP     0.4000 ****
2773 TO2   -96.108000   34.645000   33.105000 T    925 GLP     0.6000 ****
2774 TO1  -105.057000   37.871000   36.188000 T    925 GLP    -0.6000 ****
2775 HO1  -114.007000   41.097000   39.271000 H    925 GLP     0.4000 ****
2776 TO2   -98.409000   27.531000   33.025000 T    926 GLP     0.6000 ****
2777 TO1  -107.573000   30.094000   36.100000 T    926 GLP    -0.6000 ****
2778 HO1  -116.736000   32.658000   39.175000 H    926 GLP     0.4000 ****
2779 TO2  -100.184000   20.267000   32.945000 T    927 GLP     0.6000 ****
2780 TO1  -109.513000   22.155000   36.012000 T    927 GLP    -0.6000 ****
2781 HO1  -118.842000   24.042000   39.080000 H    927 GLP     0.4000 ****
2782 TO2  -101.423000   12.894000   32.864000 T    928 GLP     0.6000 ****
2783 TO1  -110.867000   14.094000   35.925000 T    928 GLP    -0.6000 ****
2784 HO1  -120.312000   15.295000   38.985000 H    928 GLP     0.4000 ****
2785 TO2  -102.120000    5.449000   32.784000 T    929 GLP     0.6000 ****
2786 TO1  -111.629000    5.956000   35.837000 T    929 GLP    -0.6000 ****
2787 HO1  -121.138000    6.464000   38.889000 H    929 GLP     0.4000 ****
2788 TO2  -102.271000   -2.027000   32.704000 T    930 GLP     0.6000 ****
2789 TO1  -111.794000   -2.215000   35.749000 T    930 GLP    -0.6000 ****
2790 HO1  -121.317000   -2.404000   38.794000 H    930 GLP     0.4000 ****
2791 TO2  -101.875000   -9.493000   32.623000 T    931 GLP     0.6000 ****
2792 TO1  -111.362000  -10.377000   35.661000 T    931 GLP    -0.6000 ****
2793 HO1  -120.848000  -11.261000   38.699000 H    931 GLP     0.4000 ****
2794 TO2  -100.935000  -16.911000   32.543000 T    932 GLP     0.6000 ****
2795 TO1  -110.334000  -18.486000   35.573000 T    932 GLP    -0.6000 ****
2796 HO1  -119.733000  -20.060000   38.604000 H    932 GLP     0.4000 ****
2797 TO2   -99.456000  -24.240000   32.463000 T    933 GLP     0.6000 ****
2798 TO1  -108.717000  -26.498000   35.485000 T    933 GLP    -0.6000 ****
2799 HO1  -117.978000  -28.755000   38.508000 H    933 GLP     0.4000 ****
2800 TO2   -97.446000  -31.442000   32.382000 T    934 GLP     0.6000 ****
2801 TO1  -106.520000  -34.370000   35.398000 T    934 GLP    -0.6000 ****
2802 HO1  -115.594000  -37.298000   38.413000 H    934 GLP     0.4000 ****
2803 TO2   -94.916000  -38.478000   32.302000 T    935 GLP     0.6000 ****
2804 TO1  -103.754000  -42.061000   35.310000 T    935 GLP    -0.6000 ****
2805 HO1  -112.592000  -45.644000   38.318000 H    935 GLP     0.4000 ****
2806 TO2   -91.879000  -45.311000   32.222000 T    936 GLP     0.6000 ****
2807 TO1  -100.434000  -49.530000   35.222000 T    936 GLP    -0.6000 ****
2808 HO1  -108.990000  -53.749000   38.222000 H    936 GLP     0.4000 ****
2809 TO2   -88.351000  -51.903000   32.141000 T    937 GLP     0.6000 ****
2810 TO1   -96.578000  -56.737000   35.134000 T    937 GLP    -0.6000 ****
2811 HO1  -104.805000  -61.570000   38.127000 H    937 GLP     0.4000 ****
2812 TO2   -84.352000  -58.221000   32.061000 T    938 GLP     0.6000 ****
2813 TO1   -92.207000  -63.643000   35.046000 T    938 GLP    -0.6000 ****
2814 HO1  -100.062000  -69.064000   38.032000 H    938 GLP     0.4000 ****
2815 TO2   -79.904000  -64.231000   31.980000 T    939 GLP     0.6000 ****
2816 TO1   -87.344000  -70.212000   34.958000 T    939 GLP    -0.6000 ****
2817 HO1   -94.784000  -76.193000   37.936000 H    939 GLP     0.4000 ****
2818 TO2   -75.029000  -69.900000   31.900000 T    940 GLP     0.6000 ****
2819 TO1   -82.015000  -76.409000   34.871000 T    940 GLP    -0.6000 ****
2820 HO1   -89.002000  -82.918000   37.841000 H    940 GLP     0.4000 ****
2821 TO2   -69.753000  -75.199000   31.820000 T    941 GLP     0.6000 ****
2822 TO1   -76.249000  -82.202000   34.783000 T    941 GLP    -0.6000 ****
2823 HO1   -82.744000  -89.204000   37.746000 H    941 GLP     0.4000 ****
2824 TO2   -64.106000  -80.100000   31.739000 T    942 GLP     0.6000 ****
2825 TO1   -70.076000  -87.558000   34.695000 T    942 GLP    -0.6000 ****
2826 HO1   -76.045000  -95.017000   37.650000 H    942 GLP     0.4000 ****
2827 TO2   -58.117000  -84.576000   31.659000 T    943 GLP     0.6000 ****
2828 TO1   -63.529000  -92.451000   34.607000 T    943 GLP    -0.6000 ****
2829 HO1   -68.940000 -100.327000   37.555000 H    943 GLP     0.4000 ****
2830 TO2   -51.818000  -88.604000   31.579000 T    944 GLP     0.6000 ****
2831 TO1   -56.643000  -96.855000   34.519000 T    944 GLP    -0.6000 ****
2832 HO1   -61.468000 -105.105000   37.460000 H    944 GLP     0.4000 ****
2833 TO2   -45.242000  -92.163000   31.498000 T    945 GLP     0.6000 ****
2834 TO1   -49.455000 -100.745000   34.431000 T    945 GLP    -0.6000 ****
2835 HO1   -53.667000 -109.327000   37.364000 H    945 GLP     0.4000 ****
2836 TO2   -38.424000  -95.234000   31.418000 T    946 GLP     0.6000 ****
2837 TO1   -42.002000 -104.101000   34.344000 T    946 GLP    -0.6000 ****
2838 HO1   -45.580000 -112.969000   37.269000 H    946 GLP     0.4000 ****
2839 TO2   -31.402000  -97.800000   31.338000 T    947 GLP     0.6000 ****
2840 TO1   -34.326000 -106.907000   34.256000 T    947 GLP    -0.6000 ****
2841 HO1   -37.250000 -116.014000   37.174000 H    947 GLP     0.4000 ****
2842 TO2   -24.211000  -99.849000   31.257000 T    948 GLP     0.6000 ****
2843 TO1   -26.465000 -109.146000   34.168000 T    948 GLP    -0.6000 ****
2844 HO1   -28.720000 -118.444000   37.078000 H    948 GLP     0.4000 ****
2845 TO2   -16.890000 -101.369000   31.177000 T    949 GLP     0.6000 ****
2846 TO1   -18.463000 -110.808000   34.080000 T    949 GLP    -0.6000 ****
2847 HO1   -20.035000 -120.248000   36.983000 H    949 GLP     0.4000 ****
2848 TO2    -9.478000 -102.353000   31.097000 T    950 GLP     0.6000 ****
2849 TO1   -10.360000 -111.884000   33.992000 T    950 GLP    -0.6000 ****
2850 HO1   -11.243000 -121.415000   36.888000 H    950 GLP     0.4000 ****
2851 TO2    -2.014000 -102.795000   31.016000 T    951 GLP     0.6000 ****
2852 TO1    -2.201000 -112.367000   33.904000 T    951 GLP    -0.6000 ****
2853 HO1    -2.389000 -121.939000   36.793000 H    951 GLP     0.4000 ****
2854 TO2     5.463000 -102.694000   30.936000 T    952 GLP     0.6000 ****
2855 TO1     5.971000 -112.257000   33.817000 T    952 GLP    -0.6000 ****
2856 HO1     6.480000 -121.819000   36.697000 H    952 GLP     0.4000 ****
2857 TO2    12.912000 -102.050000   30.856000 T    953 GLP     0.6000 ****
2858 TO1    14.114000 -111.553000   33.729000 T    953 GLP    -0.6000 ****
2859 HO1    15.316000 -121.055000   36.602000 H    953 GLP     0.4000 ****
2860 TO2    20.295000 -100.866000   30.775000 T    954 GLP     0.6000 ****
2861 TO1    22.184000 -110.259000   33.641000 T    954 GLP    -0.6000 ****
2862 HO1    24.074000 -119.651000   36.507000 H    954 GLP     0.4000 ****
2863 TO2    27.572000  -99.149000   30.695000 T    955 GLP     0.6000 ****
2864 TO1    30.139000 -108.382000   33.553000 T    955 GLP    -0.6000 ****
2865 HO1    32.707000 -117.614000   36.411000 H    955 GLP     0.4000 ****
2866 TO2    34.705000  -96.909000   30.614000 T    956 GLP     0.6000 ****
2867 TO1    37.937000 -105.932000   33.465000 T    956 GLP    -0.6000 ****
2868 HO1    41.169000 -114.956000   36.316000 H    956 GLP     0.4000 ****
2869 TO2    41.657000  -94.156000   30.534000 T    957 GLP     0.6000 ****
2870 TO1    45.536000 -102.923000   33.377000 T    957 GLP    -0.6000 ****
2871 HO1    49.415000 -111.691000   36.221000 H    957 GLP     0.4000 ****
2872 TO2    48.391000  -90.906000   30.454000 T    958 GLP     0.6000 ****
2873 TO1    52.897000  -99.371000   33.290000 T    958 GLP    -0.6000 ****
2874 HO1    57.403000 -107.836000   36.125000 H    958 GLP     0.4000 ****
2875 TO2    54.871000  -87.176000   30.373000 T    959 GLP     0.6000 ****
2876 TO1    59.981000  -95.293000   33.202000 T    959 GLP    -0.6000 ****
2877 HO1    65.090000 -103.411000   36.030000 H    959 GLP     0.4000 ****
2878 TO2    61.064000  -82.985000   30.293000 T    960 GLP     0.6000 ****
2879 TO1    66.750000  -90.713000   33.114000 T    960 GLP    -0.6000 ****
2880 HO1    72.436000  -98.440000   35.935000 H    960 GLP     0.4000 ****
2881 TO2    66.936000  -78.357000   30.213000 T    961 GLP     0.6000 ****
2882 TO1    73.169000  -85.653000   33.026000 T    961 GLP    -0.6000 ****
2883 HO1    79.401000  -92.949000   35.839000 H    961 GLP     0.4000 ****
2884 TO2    72.457000  -73.314000   30.132000 T    962 GLP     0.6000 ****
2885 TO1    79.204000  -80.141000   32.938000 T    962 GLP    -0.6000 ****
2886 HO1    85.951000  -86.968000   35.744000 H    962 GLP     0.4000 ****
2887 TO2    77.598000  -67.885000   30.052000 T    963 GLP     0.6000 ****
2888 TO1    84.824000  -74.207000   32.850000 T    963 GLP    -0.6000 ****
2889 HO1    92.049000  -80.528000   35.649000 H    963 GLP     0.4000 ****
2890 TO2    82.332000  -62.098000   29.972000 T    964 GLP     0.6000 ****
2891 TO1    89.998000  -67.880000   32.763000 T    964 GLP    -0.6000 ****
2892 HO1    97.665000  -73.662000   35.553000 H    964 GLP     0.4000 ****
2893 TO2    86.634000  -55.982000   29.891000 T    965 GLP     0.6000 ****
2894 TO1    94.701000  -61.195000   32.675000 T    965 GLP    -0.6000 ****
2895 HO1   102.768000  -66.408000   35.458000 H    965 GLP     0.4000 ****
2896 TO2    90.482000  -49.571000   29.811000 T    966 GLP     0.6000 ****
2897 TO1    98.907000  -54.187000   32.587000 T    966 GLP    -0.6000 ****
2898 HO1   107.333000  -58.803000   35.363000 H    966 GLP     0.4000 ****
2899 TO2    93.855000  -42.899000   29.731000 T    967 GLP     0.6000 ****
2900 TO1   102.595000  -46.893000   32.499000 T    967 GLP    -0.6000 ****
2901 HO1   111.334000  -50.888000   35.267000 H    967 GLP     0.4000 ****
2902 TO2    96.736000  -35.999000   29.650000 T    968 GLP     0.6000 ****
2903 TO1   105.744000  -39.351000   32.411000 T    968 GLP    -0.6000 ****
2904 HO1   114.752000  -42.703000   35.172000 H    968 GLP     0.4000 ****
2905 TO2    99.110000  -28.909000   29.570000 T    969 GLP     0.6000 ****
2906 TO1   108.339000  -31.601000   32.323000 T    969 GLP    -0.6000 ****
2907 HO1   117.568000  -34.293000   35.077000 H    969 GLP     0.4000 ****
2908 TO2   100.965000  -21.665000   29.490000 T    970 GLP     0.6000 ****
2909 TO1   110.367000  -23.683000   32.235000 T    970 GLP    -0.6000 ****
2910 HO1   119.768000  -25.700000   34.981000 H    970 GLP     0.4000 ****
2911 TO2   102.291000  -14.307000   29.409000 T    971 GLP     0.6000 ****
2912 TO1   111.816000  -15.639000   32.148000 T    971 GLP    -0.6000 ****
2913 HO1   121.341000  -16.971000   34.886000 H    971 GLP     0.4000 ****
2914 TO2   103.080000   -6.872000   29.329000 T    972 GLP     0.6000 ****
2915 TO1   112.679000   -7.512000   32.060000 T    972 GLP    -0.6000 ****
2916 HO1   122.277000   -8.151000   34.791000 H    972 GLP     0.4000 ****
2917 TO2   103.330000    0.601000   29.248000 T    973 GLP     0.6000 ****
2918 TO1   112.952000    0.657000   31.972000 T    973 GLP    -0.6000 ****
2919 HO1   122.574000    0.713000   34.696000 H    973 GLP     0.4000 ****
2920 TO2   103.039000    8.072000   29.168000 T    974 GLP     0.6000 ****
2921 TO1   112.634000    8.824000   31.884000 T    974 GLP    -0.6000 ****
2922 HO1   122.228000    9.576000   34.600000 H    974 GLP     0.4000 ****
2923 TO2   102.208000   15.503000   29.088000 T    975 GLP     0.6000 ****
2924 TO1   111.726000   16.947000   31.796000 T    975 GLP    -0.6000 ****
2925 HO1   121.243000   18.390000   34.505000 H    975 GLP     0.4000 ****
2926 TO2   100.843000   22.854000   29.007000 T    976 GLP     0.6000 ****
2927 TO1   110.233000   24.983000   31.708000 T    976 GLP    -0.6000 ****
2928 HO1   119.623000   27.111000   34.410000 H    976 GLP     0.4000 ****
2929 TO2    98.949000   30.088000   28.927000 T    977 GLP     0.6000 ****
2930 TO1   108.163000   32.889000   31.621000 T    977 GLP    -0.6000 ****
2931 HO1   117.377000   35.691000   34.314000 H    977 GLP     0.4000 ****
2932 TO2    96.538000   37.165000   28.847000 T    978 GLP     0.6000 ****
2933 TO1   105.527000   40.626000   31.533000 T    978 GLP    -0.6000 ****
2934 HO1   114.517000   44.087000   34.219000 H    978 GLP     0.4000 ****
2935 TO2    93.622000   44.050000   28.766000 T    979 GLP     0.6000 ****
2936 TO1   102.340000   48.152000   31.445000 T    979 GLP    -0.6000 ****
2937 HO1   111.057000   52.254000   34.124000 H    979 GLP     0.4000 ****
2938 TO2    90.216000   50.707000   28.686000 T    980 GLP     0.6000 ****
2939 TO1    98.617000   55.428000   31.357000 T    980 GLP    -0.6000 ****
2940 HO1   107.017000   60.150000   34.028000 H    980 GLP     0.4000 ****
2941 TO2    86.338000   57.099000   28.606000 T    981 GLP     0.6000 ****
2942 TO1    94.378000   62.416000   31.269000 T    981 GLP    -0.6000 ****
2943 HO1   102.418000   67.733000   33.933000 H    981 GLP     0.4000 ****
2944 TO2    82.010000   63.196000   28.525000 T    982 GLP     0.6000 ****
2945 TO1    89.646000   69.080000   31.181000 T    982 GLP    -0.6000 ****
2946 HO1    97.282000   74.965000   33.838000 H    982 GLP     0.4000 ****
2947 TO2    77.252000   68.964000   28.445000 T    983 GLP     0.6000 ****
2948 TO1    84.445000   75.386000   31.094000 T    983 GLP    -0.6000 ****
2949 HO1    91.639000   81.807000   33.742000 H    983 GLP     0.4000 ****
2950 TO2    72.090000   74.373000   28.365000 T    984 GLP     0.6000 ****
2951 TO1    78.803000   81.299000   31.006000 T    984 GLP    -0.6000 ****
2952 HO1    85.516000   88.224000   33.647000 H    984 GLP     0.4000 ****
2953 TO2    66.552000   79.397000   28.284000 T    985 GLP     0.6000 ****
2954 TO1    72.749000   86.790000   30.918000 T    985 GLP    -0.6000 ****
2955 HO1    78.946000   94.183000   33.552000 H    985 GLP     0.4000 ****
2956 TO2    60.666000   84.007000   28.204000 T    986 GLP     0.6000 ****
2957 TO1    66.315000   91.830000   30.830000 T    986 GLP    -0.6000 ****
2958 HO1    71.964000   99.652000   33.456000 H    986 GLP     0.4000 ****
2959 TO2    54.462000   88.181000   28.124000 T    987 GLP     0.6000 ****
2960 TO1    59.533000   96.392000   30.742000 T    987 GLP    -0.6000 ****
2961 HO1    64.605000  104.603000   33.361000 H    987 GLP     0.4000 ****
2962 TO2    47.974000   91.897000   28.043000 T    988 GLP     0.6000 ****
2963 TO1    52.441000  100.454000   30.654000 T    988 GLP    -0.6000 ****
2964 HO1    56.908000  109.011000   33.266000 H    988 GLP     0.4000 ****
2965 TO2    41.235000   95.135000   27.963000 T    989 GLP     0.6000 ****
2966 TO1    45.074000  103.994000   30.567000 T    989 GLP    -0.6000 ****
2967 HO1    48.914000  112.853000   33.170000 H    989 GLP     0.4000 ****
2968 TO2    34.279000   97.880000   27.882000 T    990 GLP     0.6000 ****
2969 TO1    37.471000  106.994000   30.479000 T    990 GLP    -0.6000 ****
2970 HO1    40.663000  116.108000   33.075000 H    990 GLP     0.4000 ****
2971 TO2    27.145000  100.116000   27.802000 T    991 GLP     0.6000 ****
2972 TO1    29.672000  109.438000   30.391000 T    991 GLP    -0.6000 ****
2973 HO1    32.200000  118.761000   32.980000 H    991 GLP     0.4000 ****
2974 TO2    19.867000  101.832000   27.722000 T    992 GLP     0.6000 ****
2975 TO1    21.717000  111.314000   30.303000 T    992 GLP    -0.6000 ****
2976 HO1    23.567000  120.797000   32.884000 H    992 GLP     0.4000 ****
2977 TO2    12.485000  103.020000   27.641000 T    993 GLP     0.6000 ****
2978 TO1    13.648000  112.612000   30.215000 T    993 GLP    -0.6000 ****
2979 HO1    14.810000  122.205000   32.789000 H    993 GLP     0.4000 ****
2980 TO2     5.037000  103.672000   27.561000 T    994 GLP     0.6000 ****
2981 TO1     5.506000  113.326000   30.127000 T    994 GLP    -0.6000 ****
2982 HO1     5.975000  122.980000   32.694000 H    994 GLP     0.4000 ****
2983 TO2    -2.439000  103.787000   27.481000 T    995 GLP     0.6000 ****
2984 TO1    -2.666000  113.452000   30.040000 T    995 GLP    -0.6000 ****
2985 HO1    -2.894000  123.116000   32.599000 H    995 GLP     0.4000 ****
2986 TO2    -9.904000  103.364000   27.400000 T    996 GLP     0.6000 ****
2987 TO1   -10.827000  112.989000   29.952000 T    996 GLP    -0.6000 ****
2988 HO1   -11.749000  122.614000   32.503000 H    996 GLP     0.4000 ****
2989 TO2   -17.319000  102.404000   27.320000 T    997 GLP     0.6000 ****
2990 TO1   -18.932000  111.940000   29.864000 T    997 GLP    -0.6000 ****
2991 HO1   -20.545000  121.475000   32.408000 H    997 GLP     0.4000 ****
2992 TO2   -24.646000  100.913000   27.240000 T    998 GLP     0.6000 ****
2993 TO1   -26.941000  110.310000   29.776000 T    998 GLP    -0.6000 ****
2994 HO1   -29.236000  119.707000   32.313000 H    998 GLP     0.4000 ****
2995 TO2   -31.847000   98.900000   27.159000 T    999 GLP     0.6000 ****
2996 TO1   -34.812000  108.109000   29.688000 T    999 GLP    -0.6000 ****
2997 HO1   -37.778000  117.318000   32.217000 H    999 GLP     0.4000 ****
2998 TO2   -38.884000   96.373000   27.079000 T    1000 GLP     0.6000 ****
2999 TO1   -42.505000  105.347000   29.600000 T    1000 GLP    -0.6000 ****
3000 HO1   -46.126000  114.321000   32.122000 H    1000 GLP     0.4000 ****
3001 TO2   -45.721000   93.347000   26.999000 T    1001 GLP     0.6000 ****
3002 TO1   -49.979000  102.039000   29.513000 T    1001 GLP    -0.6000 ****
3003 HO1   -54.236000  110.731000   32.027000 H    1001 GLP     0.4000 ****
3004 TO2   -52.323000   89.837000   26.918000 T    1002 GLP     0.6000 ****
3005 TO1   -57.195000   98.202000   29.425000 T    1002 GLP    -0.6000 ****
3006 HO1   -62.068000  106.568000   31.931000 H    1002 GLP     0.4000 ****
3007 TO2   -58.656000   85.862000   26.838000 T    1003 GLP     0.6000 ****
3008 TO1   -64.118000   93.857000   29.337000 T    1003 GLP    -0.6000 ****
3009 HO1   -69.579000  101.852000   31.836000 H    1003 GLP     0.4000 ****
3010 TO2   -64.686000   81.441000   26.758000 T    1004 GLP     0.6000 ****
3011 TO1   -70.710000   89.025000   29.249000 T    1004 GLP    -0.6000 ****
3012 HO1   -76.733000   96.609000   31.741000 H    1004 GLP     0.4000 ****
3013 TO2   -70.384000   76.599000   26.677000 T    1005 GLP     0.6000 ****
3014 TO1   -76.937000   83.732000   29.161000 T    1005 GLP    -0.6000 ****
3015 HO1   -83.491000   90.865000   31.645000 H    1005 GLP     0.4000 ****
3016 TO2   -75.718000   71.360000   26.597000 T    1006 GLP     0.6000 ****
3017 TO1   -82.769000   78.005000   29.073000 T    1006 GLP    -0.6000 ****
3018 HO1   -89.820000   84.650000   31.550000 H    1006 GLP     0.4000 ****
3019 TO2   -80.663000   65.752000   26.516000 T    1007 GLP     0.6000 ****
3020 TO1   -88.174000   71.875000   28.986000 T    1007 GLP    -0.6000 ****
3021 HO1   -95.685000   77.997000   31.455000 H    1007 GLP     0.4000 ****
3022 TO2   -85.192000   59.803000   26.436000 T    1008 GLP     0.6000 ****
3023 TO1   -93.125000   65.372000   28.898000 T    1008 GLP    -0.6000 ****
3024 HO1  -101.058000   70.940000   31.359000 H    1008 GLP     0.4000 ****
3025 TO2   -89.283000   53.544000   26.356000 T    1009 GLP     0.6000 ****
3026 TO1   -97.596000   58.530000   28.810000 T    1009 GLP    -0.6000 ****
3027 HO1  -105.910000   63.516000   31.264000 H    1009 GLP     0.4000 ****
3028 TO2   -92.913000   47.008000   26.275000 T    1010 GLP     0.6000 ****
3029 TO1  -101.565000   51.385000   28.722000 T    1010 GLP    -0.6000 ****
3030 HO1  -110.217000   55.762000   31.169000 H    1010 GLP     0.4000 ****
3031 TO2   -96.065000   40.228000   26.195000 T    1011 GLP     0.6000 ****
3032 TO1  -105.010000   43.974000   28.634000 T    1011 GLP    -0.6000 ****
3033 HO1  -113.956000   47.719000   31.073000 H    1011 GLP     0.4000 ****
3034 TO2   -98.723000   33.239000   26.115000 T    1012 GLP     0.6000 ****
3035 TO1  -107.915000   36.334000   28.546000 T    1012 GLP    -0.6000 ****
3036 HO1  -117.108000   39.429000   30.978000 H    1012 GLP     0.4000 ****
3037 TO2  -100.872000   26.078000   26.034000 T    1013 GLP     0.6000 ****
3038 TO1  -110.265000   28.506000   28.459000 T    1013 GLP    -0.6000 ****
3039 HO1  -119.658000   30.934000   30.883000 H    1013 GLP     0.4000 ****
3040 TO2  -102.502000   18.780000   25.954000 T    1014 GLP     0.6000 ****
3041 TO1  -112.047000   20.529000   28.371000 T    1014 GLP    -0.6000 ****
3042 HO1  -121.591000   22.278000   30.788000 H    1014 GLP     0.4000 ****
3043 TO2  -103.605000   11.385000   25.874000 T    1015 GLP     0.6000 ****
3044 TO1  -113.252000   12.445000   28.283000 T    1015 GLP    -0.6000 ****
3045 HO1  -122.899000   13.506000   30.692000 H    1015 GLP     0.4000 ****
3046 TO2  -104.174000    3.930000   25.793000 T    1016 GLP     0.6000 ****
3047 TO1  -113.874000    4.296000   28.195000 T    1016 GLP    -0.6000 ****
3048 HO1  -123.575000    4.662000   30.597000 H    1016 GLP     0.4000 ****
3049 TO2  -104.208000   -3.547000   25.713000 T    1017 GLP     0.6000 ****
3050 TO1  -113.911000   -3.877000   28.107000 T    1017 GLP    -0.6000 ****
3051 HO1  -123.615000   -4.207000   30.502000 H    1017 GLP     0.4000 ****
3052 TO2  -103.705000  -11.007000   25.633000 T    1018 GLP     0.6000 ****
3053 TO1  -113.362000  -12.032000   28.019000 T    1018 GLP    -0.6000 ****
3054 HO1  -123.019000  -13.057000   30.406000 H    1018 GLP     0.4000 ****
3055 TO2  -102.670000  -18.412000   25.552000 T    1019 GLP     0.6000 ****
3056 TO1  -112.230000  -20.126000   27.932000 T    1019 GLP    -0.6000 ****
3057 HO1  -121.790000  -21.841000   30.311000 H    1019 GLP     0.4000 ****
3058 TO2  -101.106000  -25.723000   25.472000 T    1020 GLP     0.6000 ****
3059 TO1  -110.521000  -28.119000   27.844000 T    1020 GLP    -0.6000 ****
3060 HO1  -119.936000  -30.514000   30.216000 H    1020 GLP     0.4000 ****
3061 TO2   -99.023000  -32.904000   25.392000 T    1021 GLP     0.6000 ****
3062 TO1  -108.244000  -35.968000   27.756000 T    1021 GLP    -0.6000 ****
3063 HO1  -117.464000  -39.032000   30.120000 H    1021 GLP     0.4000 ****
3064 TO2   -96.431000  -39.917000   25.311000 T    1022 GLP     0.6000 ****
3065 TO1  -105.410000  -43.634000   27.668000 T    1022 GLP    -0.6000 ****
3066 HO1  -114.390000  -47.351000   30.025000 H    1022 GLP     0.4000 ****
3067 TO2   -93.343000  -46.727000   25.231000 T    1023 GLP     0.6000 ****
3068 TO1  -102.035000  -51.078000   27.580000 T    1023 GLP    -0.6000 ****
3069 HO1  -110.727000  -55.429000   29.930000 H    1023 GLP     0.4000 ****
3070 TO2   -89.776000  -53.298000   25.150000 T    1024 GLP     0.6000 ****
3071 TO1   -98.136000  -58.261000   27.492000 T    1024 GLP    -0.6000 ****
3072 HO1  -106.495000  -63.224000   29.834000 H    1024 GLP     0.4000 ****
3073 TO2   -85.748000  -59.597000   25.070000 T    1025 GLP     0.6000 ****
3074 TO1   -93.732000  -65.146000   27.405000 T    1025 GLP    -0.6000 ****
3075 HO1  -101.717000  -70.696000   29.739000 H    1025 GLP     0.4000 ****
3076 TO2   -81.279000  -65.591000   24.990000 T    1026 GLP     0.6000 ****
3077 TO1   -88.847000  -71.699000   27.317000 T    1026 GLP    -0.6000 ****
3078 HO1   -96.416000  -77.807000   29.644000 H    1026 GLP     0.4000 ****
3079 TO2   -76.392000  -71.251000   24.909000 T    1027 GLP     0.6000 ****
3080 TO1   -83.506000  -77.885000   27.229000 T    1027 GLP    -0.6000 ****
3081 HO1   -90.619000  -84.520000   29.548000 H    1027 GLP     0.4000 ****
3082 TO2   -71.114000  -76.546000   24.829000 T    1028 GLP     0.6000 ****
3083 TO1   -77.736000  -83.674000   27.141000 T    1028 GLP    -0.6000 ****
3084 HO1   -84.358000  -90.802000   29.453000 H    1028 GLP     0.4000 ****
3085 TO2   -65.470000  -81.450000   24.749000 T    1029 GLP     0.6000 ****
3086 TO1   -71.566000  -89.035000   27.053000 T    1029 GLP    -0.6000 ****
3087 HO1   -77.663000  -96.619000   29.358000 H    1029 GLP     0.4000 ****
3088 TO2   -59.490000  -85.938000   24.668000 T    1030 GLP     0.6000 ****
3089 TO1   -65.029000  -93.941000   26.965000 T    1030 GLP    -0.6000 ****
3090 HO1   -70.569000 -101.943000   29.262000 H    1030 GLP     0.4000 ****
3091 TO2   -53.204000  -89.987000   24.588000 T    1031 GLP     0.6000 ****
3092 TO1   -58.158000  -98.367000   26.878000 T    1031 GLP    -0.6000 ****
3093 HO1   -63.113000 -106.746000   29.167000 H    1031 GLP     0.4000 ****
3094 TO2   -46.645000  -93.577000   24.508000 T    1032 GLP     0.6000 ****
3095 TO1   -50.989000 -102.290000   26.790000 T    1032 GLP    -0.6000 ****
3096 HO1   -55.332000 -111.004000   29.072000 H    1032 GLP     0.4000 ****
3097 TO2   -39.846000  -96.688000   24.427000 T    1033 GLP     0.6000 ****
3098 TO1   -43.557000 -105.691000   26.702000 T    1033 GLP    -0.6000 ****
3099 HO1   -47.267000 -114.694000   28.976000 H    1033 GLP     0.4000 ****
3100 TO2   -32.843000  -99.305000   24.347000 T    1034 GLP     0.6000 ****
3101 TO1   -35.901000 -108.552000   26.614000 T    1034 GLP    -0.6000 ****
3102 HO1   -38.959000 -117.799000   28.881000 H    1034 GLP     0.4000 ****
3103 TO2   -25.670000 -101.416000   24.267000 T    1035 GLP     0.6000 ****
3104 TO1   -28.060000 -110.859000   26.526000 T    1035 GLP    -0.6000 ****
3105 HO1   -30.450000 -120.303000   28.786000 H    1035 GLP     0.4000 ****
3106 TO2   -18.364000 -103.008000   24.186000 T    1036 GLP     0.6000 ****
3107 TO1   -20.074000 -112.600000   26.438000 T    1036 GLP    -0.6000 ****
3108 HO1   -21.785000 -122.192000   28.691000 H    1036 GLP     0.4000 ****
3109 TO2   -10.964000 -104.075000   24.106000 T    1037 GLP     0.6000 ****
3110 TO1   -11.985000 -113.766000   26.351000 T    1037 GLP    -0.6000 ****
3111 HO1   -13.006000 -123.458000   28.595000 H    1037 GLP     0.4000 ****
3112 TO2    -3.506000 -104.611000   24.026000 T    1038 GLP     0.6000 ****
3113 TO1    -3.833000 -114.352000   26.263000 T    1038 GLP    -0.6000 ****
3114 HO1    -4.159000 -124.093000   28.500000 H    1038 GLP     0.4000 ****
3115 TO2     3.971000 -104.613000   23.945000 T    1039 GLP     0.6000 ****
3116 TO1     4.340000 -114.354000   26.175000 T    1039 GLP    -0.6000 ****
3117 HO1     4.710000 -124.095000   28.405000 H    1039 GLP     0.4000 ****
3118 TO2    11.428000 -104.081000   23.865000 T    1040 GLP     0.6000 ****
3119 TO1    12.493000 -113.773000   26.087000 T    1040 GLP    -0.6000 ****
3120 HO1    13.557000 -123.464000   28.309000 H    1040 GLP     0.4000 ****
3121 TO2    18.829000 -103.018000   23.784000 T    1041 GLP     0.6000 ****
3122 TO1    20.583000 -112.611000   25.999000 T    1041 GLP    -0.6000 ****
3123 HO1    22.336000 -122.204000   28.214000 H    1041 GLP     0.4000 ****
3124 TO2    26.136000 -101.430000   23.704000 T    1042 GLP     0.6000 ****
3125 TO1    28.569000 -110.875000   25.911000 T    1042 GLP    -0.6000 ****
3126 HO1    31.003000 -120.320000   28.119000 H    1042 GLP     0.4000 ****
3127 TO2    33.310000  -99.324000   23.624000 T    1043 GLP     0.6000 ****
3128 TO1    36.412000 -108.573000   25.824000 T    1043 GLP    -0.6000 ****
3129 HO1    39.513000 -117.822000   28.023000 H    1043 GLP     0.4000 ****
3130 TO2    40.316000  -96.713000   23.543000 T    1044 GLP     0.6000 ****
3131 TO1    44.070000 -105.718000   25.736000 T    1044 GLP    -0.6000 ****
3132 HO1    47.824000 -114.724000   27.928000 H    1044 GLP     0.4000 ****
3133 TO2    47.118000  -93.608000   23.463000 T    1045 GLP     0.6000 ****
3134 TO1    51.505000 -102.324000   25.648000 T    1045 GLP    -0.6000 ****
3135 HO1    55.892000 -111.041000   27.833000 H    1045 GLP     0.4000 ****
3136 TO2    53.681000  -90.026000   23.383000 T    1046 GLP     0.6000 ****
3137 TO1    58.679000  -98.409000   25.560000 T    1046 GLP    -0.6000 ****
3138 HO1    63.678000 -106.792000   27.737000 H    1046 GLP     0.4000 ****
3139 TO2    59.971000  -85.985000   23.302000 T    1047 GLP     0.6000 ****
3140 TO1    65.556000  -93.992000   25.472000 T    1047 GLP    -0.6000 ****
3141 HO1    71.140000 -101.998000   27.642000 H    1047 GLP     0.4000 ****
3142 TO2    65.958000  -81.506000   23.222000 T    1048 GLP     0.6000 ****
3143 TO1    72.100000  -89.095000   25.384000 T    1048 GLP    -0.6000 ****
3144 HO1    78.242000  -96.685000   27.547000 H    1048 GLP     0.4000 ****
3145 TO2    71.611000  -76.612000   23.142000 T    1049 GLP     0.6000 ****
3146 TO1    78.279000  -83.745000   25.297000 T    1049 GLP    -0.6000 ****
3147 HO1    84.947000  -90.879000   27.451000 H    1049 GLP     0.4000 ****
3148 TO2    76.900000  -71.327000   23.061000 T    1050 GLP     0.6000 ****
3149 TO1    84.061000  -77.969000   25.209000 T    1050 GLP    -0.6000 ****
3150 HO1    91.221000  -84.611000   27.356000 H    1050 GLP     0.4000 ****
3151 TO2    81.799000  -65.679000   22.981000 T    1051 GLP     0.6000 ****
3152 TO1    89.416000  -71.795000   25.121000 T    1051 GLP    -0.6000 ****
3153 HO1    97.033000  -77.911000   27.261000 H    1051 GLP     0.4000 ****
3154 TO2    86.284000  -59.696000   22.901000 T    1052 GLP     0.6000 ****
3155 TO1    94.318000  -65.255000   25.033000 T    1052 GLP    -0.6000 ****
3156 HO1   102.353000  -70.814000   27.165000 H    1052 GLP     0.4000 ****
3157 TO2    90.331000  -53.409000   22.820000 T    1053 GLP     0.6000 ****
3158 TO1    98.742000  -58.383000   24.945000 T    1053 GLP    -0.6000 ****
3159 HO1   107.153000  -63.356000   27.070000 H    1053 GLP     0.4000 ****
3160 TO2    93.920000  -46.850000   22.740000 T    1054 GLP     0.6000 ****
3161 TO1   102.665000  -51.213000   24.857000 T    1054 GLP    -0.6000 ****
3162 HO1   111.411000  -55.575000   26.975000 H    1054 GLP     0.4000 ****
3163 TO2    97.033000  -40.052000   22.660000 T    1055 GLP     0.6000 ****
3164 TO1   106.068000  -43.782000   24.770000 T    1055 GLP    -0.6000 ****
3165 HO1   115.103000  -47.511000   26.879000 H    1055 GLP     0.4000 ****
3166 TO2    99.654000  -33.050000   22.579000 T    1056 GLP     0.6000 ****
3167 TO1   108.933000  -36.127000   24.682000 T    1056 GLP    -0.6000 ****
3168 HO1   118.213000  -39.205000   26.784000 H    1056 GLP     0.4000 ****
3169 TO2   101.770000  -25.879000   22.499000 T    1057 GLP     0.6000 ****
3170 TO1   111.246000  -28.288000   24.594000 T    1057 GLP    -0.6000 ****
3171 HO1   120.723000  -30.698000   26.689000 H    1057 GLP     0.4000 ****
3172 TO2   103.370000  -18.575000   22.418000 T    1058 GLP     0.6000 ****
3173 TO1   112.995000  -20.305000   24.506000 T    1058 GLP    -0.6000 ****
3174 HO1   122.621000  -22.034000   26.594000 H    1058 GLP     0.4000 ****
3175 TO2   104.446000  -11.176000   22.338000 T    1059 GLP     0.6000 ****
3176 TO1   114.172000  -12.217000   24.418000 T    1059 GLP    -0.6000 ****
3177 HO1   123.898000  -13.257000   26.498000 H    1059 GLP     0.4000 ****
3178 TO2   104.994000   -3.719000   22.258000 T    1060 GLP     0.6000 ****
3179 TO1   114.771000   -4.066000   24.330000 T    1060 GLP    -0.6000 ****
3180 HO1   124.547000   -4.412000   26.403000 H    1060 GLP     0.4000 ****
3181 TO2   105.010000    3.758000   22.177000 T    1061 GLP     0.6000 ****
3182 TO1   114.788000    4.107000   24.242000 T    1061 GLP    -0.6000 ****
3183 HO1   124.566000    4.457000   26.308000 H    1061 GLP     0.4000 ****
3184 TO2   104.493000   11.217000   22.097000 T    1062 GLP     0.6000 ****
3185 TO1   114.224000   12.261000   24.155000 T    1062 GLP    -0.6000 ****
3186 HO1   123.954000   13.305000   26.212000 H    1062 GLP     0.4000 ****
3187 TO2   103.448000   18.620000   22.017000 T    1063 GLP     0.6000 ****
3188 TO1   113.081000   20.354000   24.067000 T    1063 GLP    -0.6000 ****
3189 HO1   122.714000   22.088000   26.117000 H    1063 GLP     0.4000 ****
3190 TO2   101.879000   25.930000   21.936000 T    1064 GLP     0.6000 ****
3191 TO1   111.366000   28.345000   23.979000 T    1064 GLP    -0.6000 ****
3192 HO1   120.853000   30.759000   26.022000 H    1064 GLP     0.4000 ****
3193 TO2    99.795000   33.111000   21.856000 T    1065 GLP     0.6000 ****
3194 TO1   109.087000   36.194000   23.891000 T    1065 GLP    -0.6000 ****
3195 HO1   118.380000   39.277000   25.926000 H    1065 GLP     0.4000 ****
3196 TO2    97.205000   40.125000   21.776000 T    1066 GLP     0.6000 ****
3197 TO1   106.256000   43.861000   23.803000 T    1066 GLP    -0.6000 ****
3198 HO1   115.308000   47.597000   25.831000 H    1066 GLP     0.4000 ****
3199 TO2    94.123000   46.937000   21.695000 T    1067 GLP     0.6000 ****
3200 TO1   102.888000   51.308000   23.715000 T    1067 GLP    -0.6000 ****
3201 HO1   111.652000   55.678000   25.736000 H    1067 GLP     0.4000 ****
3202 TO2    90.566000   53.513000   21.615000 T    1068 GLP     0.6000 ****
3203 TO1    98.999000   58.496000   23.628000 T    1068 GLP    -0.6000 ****
3204 HO1   107.432000   63.479000   25.640000 H    1068 GLP     0.4000 ****
3205 TO2    86.550000   59.820000   21.535000 T    1069 GLP     0.6000 ****
3206 TO1    94.609000   65.390000   23.540000 T    1069 GLP    -0.6000 ****
3207 HO1   102.668000   70.960000   25.545000 H    1069 GLP     0.4000 ****
3208 TO2    82.096000   65.825000   21.454000 T    1070 GLP     0.6000 ****
3209 TO1    89.740000   71.955000   23.452000 T    1070 GLP    -0.6000 ****
3210 HO1    97.385000   78.084000   25.450000 H    1070 GLP     0.4000 ****
3211 TO2    77.227000   71.499000   21.374000 T    1071 GLP     0.6000 ****
3212 TO1    84.418000   78.157000   23.364000 T    1071 GLP    -0.6000 ****
3213 HO1    91.609000   84.815000   25.354000 H    1071 GLP     0.4000 ****
3214 TO2    71.967000   76.813000   21.294000 T    1072 GLP     0.6000 ****
3215 TO1    78.668000   83.966000   23.276000 T    1072 GLP    -0.6000 ****
3216 HO1    85.370000   91.119000   25.259000 H    1072 GLP     0.4000 ****
3217 TO2    66.343000   81.741000   21.213000 T    1073 GLP     0.6000 ****
3218 TO1    72.521000   89.352000   23.188000 T    1073 GLP    -0.6000 ****
3219 HO1    78.699000   96.963000   25.164000 H    1073 GLP     0.4000 ****
3220 TO2    60.384000   86.256000   21.133000 T    1074 GLP     0.6000 ****
3221 TO1    66.007000   94.288000   23.101000 T    1074 GLP    -0.6000 ****
3222 HO1    71.630000  102.320000   25.068000 H    1074 GLP     0.4000 ****
3223 TO2    54.120000   90.337000   21.052000 T    1075 GLP     0.6000 ****
3224 TO1    59.159000   98.749000   23.013000 T    1075 GLP    -0.6000 ****
3225 HO1    64.198000  107.161000   24.973000 H    1075 GLP     0.4000 ****
3226 TO2    47.581000   93.964000   20.972000 T    1076 GLP     0.6000 ****
3227 TO1    52.012000  102.713000   22.925000 T    1076 GLP    -0.6000 ****
3228 HO1    56.442000  111.463000   24.878000 H    1076 GLP     0.4000 ****
3229 TO2    40.802000   97.117000   20.892000 T    1077 GLP     0.6000 ****
3230 TO1    44.601000  106.160000   22.837000 T    1077 GLP    -0.6000 ****
3231 HO1    48.400000  115.204000   24.783000 H    1077 GLP     0.4000 ****
3232 TO2    33.816000   99.782000   20.811000 T    1078 GLP     0.6000 ****
3233 TO1    36.965000  109.073000   22.749000 T    1078 GLP    -0.6000 ****
3234 HO1    40.113000  118.364000   24.687000 H    1078 GLP     0.4000 ****
3235 TO2    26.658000  101.944000   20.731000 T    1079 GLP     0.6000 ****
3236 TO1    29.141000  111.436000   22.661000 T    1079 GLP    -0.6000 ****
3237 HO1    31.623000  120.929000   24.592000 H    1079 GLP     0.4000 ****
3238 TO2    19.366000  103.593000   20.651000 T    1080 GLP     0.6000 ****
3239 TO1    21.169000  113.239000   22.574000 T    1080 GLP    -0.6000 ****
3240 HO1    22.972000  122.885000   24.497000 H    1080 GLP     0.4000 ****
3241 TO2    11.975000  104.721000   20.570000 T    1081 GLP     0.6000 ****
3242 TO1    13.090000  114.472000   22.486000 T    1081 GLP    -0.6000 ****
3243 HO1    14.205000  124.223000   24.401000 H    1081 GLP     0.4000 ****
3244 TO2     4.522000  105.322000   20.490000 T    1082 GLP     0.6000 ****
3245 TO1     4.943000  115.129000   22.398000 T    1082 GLP    -0.6000 ****
3246 HO1     5.364000  124.936000   24.306000 H    1082 GLP     0.4000 ****
3247 TO2    -2.955000  105.393000   20.410000 T    1083 GLP     0.6000 ****
3248 TO1    -3.230000  115.207000   22.310000 T    1083 GLP    -0.6000 ****
3249 HO1    -3.505000  125.021000   24.211000 H    1083 GLP     0.4000 ****
3250 TO2   -10.417000  104.934000   20.329000 T    1084 GLP     0.6000 ****
3251 TO1   -11.387000  114.705000   22.222000 T    1084 GLP    -0.6000 ****
3252 HO1   -12.357000  124.476000   24.115000 H    1084 GLP     0.4000 ****
3253 TO2   -17.829000  103.948000   20.249000 T    1085 GLP     0.6000 ****
3254 TO1   -19.489000  113.627000   22.134000 T    1085 GLP    -0.6000 ****
3255 HO1   -21.149000  123.306000   24.020000 H    1085 GLP     0.4000 ****
3256 TO2   -25.152000  102.438000   20.169000 T    1086 GLP     0.6000 ****
3257 TO1   -27.494000  111.977000   22.047000 T    1086 GLP    -0.6000 ****
3258 HO1   -29.836000  121.516000   23.925000 H    1086 GLP     0.4000 ****
3259 TO2   -32.349000  100.414000   20.088000 T    1087 GLP     0.6000 ****
3260 TO1   -35.361000  109.764000   21.959000 T    1087 GLP    -0.6000 ****
3261 HO1   -38.374000  119.114000   23.829000 H    1087 GLP     0.4000 ****
3262 TO2   -39.385000   97.885000   20.008000 T    1088 GLP     0.6000 ****
3263 TO1   -43.053000  107.000000   21.871000 T    1088 GLP    -0.6000 ****
3264 HO1   -46.720000  116.114000   23.734000 H    1088 GLP     0.4000 ****
3265 TO2   -46.224000   94.864000   19.928000 T    1089 GLP     0.6000 ****
3266 TO1   -50.529000  103.697000   21.783000 T    1089 GLP    -0.6000 ****
3267 HO1   -54.833000  112.531000   23.639000 H    1089 GLP     0.4000 ****
3268 TO2   -52.833000   91.366000   19.847000 T    1090 GLP     0.6000 ****
3269 TO1   -57.752000   99.874000   21.695000 T    1090 GLP    -0.6000 ****
3270 HO1   -62.672000  108.382000   23.543000 H    1090 GLP     0.4000 ****
3271 TO2   -59.177000   87.409000   19.767000 T    1091 GLP     0.6000 ****
3272 TO1   -64.687000   95.549000   21.607000 T    1091 GLP    -0.6000 ****
3273 HO1   -70.197000  103.688000   23.448000 H    1091 GLP     0.4000 ****
3274 TO2   -65.224000   83.013000   19.686000 T    1092 GLP     0.6000 ****
3275 TO1   -71.298000   90.743000   21.520000 T    1092 GLP    -0.6000 ****
3276 HO1   -77.371000   98.473000   23.353000 H    1092 GLP     0.4000 ****
3277 TO2   -70.946000   78.200000   19.606000 T    1093 GLP     0.6000 ****
3278 TO1   -77.552000   85.482000   21.432000 T    1093 GLP    -0.6000 ****
3279 HO1   -84.158000   92.764000   23.257000 H    1093 GLP     0.4000 ****
3280 TO2   -76.312000   72.994000   19.526000 T    1094 GLP     0.6000 ****
3281 TO1   -83.418000   79.791000   21.344000 T    1094 GLP    -0.6000 ****
3282 HO1   -90.524000   86.588000   23.162000 H    1094 GLP     0.4000 ****
3283 TO2   -81.297000   67.421000   19.445000 T    1095 GLP     0.6000 ****
3284 TO1   -88.867000   73.699000   21.256000 T    1095 GLP    -0.6000 ****
3285 HO1   -96.437000   79.977000   23.067000 H    1095 GLP     0.4000 ****
3286 TO2   -85.875000   61.510000   19.365000 T    1096 GLP     0.6000 ****
3287 TO1   -93.871000   67.237000   21.168000 T    1096 GLP    -0.6000 ****
3288 HO1  -101.868000   72.965000   22.971000 H    1096 GLP     0.4000 ****
3289 TO2   -90.023000   55.289000   19.285000 T    1097 GLP     0.6000 ****
3290 TO1   -98.406000   60.438000   21.080000 T    1097 GLP    -0.6000 ****
3291 HO1  -106.788000   65.586000   22.876000 H    1097 GLP     0.4000 ****
3292 TO2   -93.721000   48.791000   19.204000 T    1098 GLP     0.6000 ****
3293 TO1  -102.448000   53.334000   20.993000 T    1098 GLP    -0.6000 ****
3294 HO1  -111.175000   57.878000   22.781000 H    1098 GLP     0.4000 ****
3295 TO2   -96.950000   42.047000   19.124000 T    1099 GLP     0.6000 ****
3296 TO1  -105.977000   45.963000   20.905000 T    1099 GLP    -0.6000 ****
3297 HO1  -115.005000   49.878000   22.686000 H    1099 GLP     0.4000 ****
3298 TO2   -99.694000   35.092000   19.044000 T    1100 GLP     0.6000 ****
3299 TO1  -108.977000   38.360000   20.817000 T    1100 GLP    -0.6000 ****
3300 HO1  -118.260000   41.628000   22.590000 H    1100 GLP     0.4000 ****
3301 TO2  -101.939000   27.961000   18.963000 T    1101 GLP     0.6000 ****
3302 TO1  -111.431000   30.564000   20.729000 T    1101 GLP    -0.6000 ****
3303 HO1  -120.924000   33.168000   22.495000 H    1101 GLP     0.4000 ****
3304 TO2  -103.675000   20.688000   18.883000 T    1102 GLP     0.6000 ****
3305 TO1  -113.328000   22.615000   20.641000 T    1102 GLP    -0.6000 ****
3306 HO1  -122.982000   24.541000   22.400000 H    1102 GLP     0.4000 ****
3307 TO2  -104.892000   13.311000   18.803000 T    1103 GLP     0.6000 ****
3308 TO1  -114.659000   14.551000   20.553000 T    1103 GLP    -0.6000 ****
3309 HO1  -124.426000   15.790000   22.304000 H    1103 GLP     0.4000 ****
3310 TO2  -105.584000    5.866000   18.722000 T    1104 GLP     0.6000 ****
3311 TO1  -115.416000    6.413000   20.466000 T    1104 GLP    -0.6000 ****
3312 HO1  -125.248000    6.959000   22.209000 H    1104 GLP     0.4000 ****
3313 TO2  -105.749000   -1.608000   18.642000 T    1105 GLP     0.6000 ****
3314 TO1  -115.596000   -1.758000   20.378000 T    1105 GLP    -0.6000 ****
3315 HO1  -125.443000   -1.908000   22.114000 H    1105 GLP     0.4000 ****
3316 TO2  -105.385000   -9.076000   18.562000 T    1106 GLP     0.6000 ****
3317 TO1  -115.198000   -9.922000   20.290000 T    1106 GLP    -0.6000 ****
3318 HO1  -125.012000  -10.767000   22.018000 H    1106 GLP     0.4000 ****
3319 TO2  -104.495000  -16.500000   18.481000 T    1107 GLP     0.6000 ****
3320 TO1  -114.225000  -18.036000   20.202000 T    1107 GLP    -0.6000 ****
3321 HO1  -123.955000  -19.573000   21.923000 H    1107 GLP     0.4000 ****
3322 TO2  -103.082000  -23.842000   18.401000 T    1108 GLP     0.6000 ****
3323 TO1  -112.681000  -26.062000   20.114000 T    1108 GLP    -0.6000 ****
3324 HO1  -122.280000  -28.282000   21.828000 H    1108 GLP     0.4000 ****
3325 TO2  -101.155000  -31.066000   18.320000 T    1109 GLP     0.6000 ****
3326 TO1  -110.574000  -33.959000   20.026000 T    1109 GLP    -0.6000 ****
3327 HO1  -119.993000  -36.852000   21.732000 H    1109 GLP     0.4000 ****
3328 TO2   -98.721000  -38.136000   18.240000 T    1110 GLP     0.6000 ****
3329 TO1  -107.914000  -41.687000   19.939000 T    1110 GLP    -0.6000 ****
3330 HO1  -117.107000  -45.238000   21.637000 H    1110 GLP     0.4000 ****
3331 TO2   -95.795000  -45.016000   18.160000 T    1111 GLP     0.6000 ****
3332 TO1  -104.715000  -49.208000   19.851000 T    1111 GLP    -0.6000 ****
3333 HO1  -113.636000  -53.400000   21.542000 H    1111 GLP     0.4000 ****
3334 TO2   -92.391000  -51.673000   18.079000 T    1112 GLP     0.6000 ****
3335 TO1  -100.994000  -56.484000   19.763000 T    1112 GLP    -0.6000 ****
3336 HO1  -109.597000  -61.296000   21.446000 H    1112 GLP     0.4000 ****
3337 TO2   -88.525000  -58.072000   17.999000 T    1113 GLP     0.6000 ****
3338 TO1   -96.768000  -63.480000   19.675000 T    1113 GLP    -0.6000 ****
3339 HO1  -105.011000  -68.887000   21.351000 H    1113 GLP     0.4000 ****
3340 TO2   -84.216000  -64.183000   17.919000 T    1114 GLP     0.6000 ****
3341 TO1   -92.058000  -70.160000   19.587000 T    1114 GLP    -0.6000 ****
3342 HO1   -99.900000  -76.136000   21.256000 H    1114 GLP     0.4000 ****
3343 TO2   -79.488000  -69.975000   17.838000 T    1115 GLP     0.6000 ****
3344 TO1   -86.890000  -76.490000   19.499000 T    1115 GLP    -0.6000 ****
3345 HO1   -94.291000  -83.006000   21.160000 H    1115 GLP     0.4000 ****
3346 TO2   -74.362000  -75.418000   17.758000 T    1116 GLP     0.6000 ****
3347 TO1   -81.287000  -82.441000   19.412000 T    1116 GLP    -0.6000 ****
3348 HO1   -88.211000  -89.463000   21.065000 H    1116 GLP     0.4000 ****
3349 TO2   -68.865000  -80.486000   17.678000 T    1117 GLP     0.6000 ****
3350 TO1   -75.278000  -87.981000   19.324000 T    1117 GLP    -0.6000 ****
3351 HO1   -81.691000  -95.475000   20.970000 H    1117 GLP     0.4000 ****
3352 TO2   -63.025000  -85.154000   17.597000 T    1118 GLP     0.6000 ****
3353 TO1   -68.893000  -93.083000   19.236000 T    1118 GLP    -0.6000 ****
3354 HO1   -74.762000 -101.012000   20.875000 H    1118 GLP     0.4000 ****
3355 TO2   -56.869000  -89.398000   17.517000 T    1119 GLP     0.6000 ****
3356 TO1   -62.165000  -97.722000   19.148000 T    1119 GLP    -0.6000 ****
3357 HO1   -67.460000 -106.047000   20.779000 H    1119 GLP     0.4000 ****
3358 TO2   -50.430000  -93.197000   17.437000 T    1120 GLP     0.6000 ****
3359 TO1   -55.126000 -101.876000   19.060000 T    1120 GLP    -0.6000 ****
3360 HO1   -59.822000 -110.554000   20.684000 H    1120 GLP     0.4000 ****
3361 TO2   -43.739000  -96.533000   17.356000 T    1121 GLP     0.6000 ****
3362 TO1   -47.811000 -105.522000   18.972000 T    1121 GLP    -0.6000 ****
3363 HO1   -51.884000 -114.511000   20.589000 H    1121 GLP     0.4000 ****
3364 TO2   -36.829000  -99.389000   17.276000 T    1122 GLP     0.6000 ****
3365 TO1   -40.258000 -108.644000   18.885000 T    1122 GLP    -0.6000 ****
3366 HO1   -43.688000 -117.899000   20.493000 H    1122 GLP     0.4000 ****
3367 TO2   -29.735000 -101.750000   17.196000 T    1123 GLP     0.6000 ****
3368 TO1   -32.504000 -111.225000   18.797000 T    1123 GLP    -0.6000 ****
3369 HO1   -35.272000 -120.700000   20.398000 H    1123 GLP     0.4000 ****
3370 TO2   -22.492000 -103.606000   17.115000 T    1124 GLP     0.6000 ****
3371 TO1   -24.586000 -113.253000   18.709000 T    1124 GLP    -0.6000 ****
3372 HO1   -26.681000 -122.901000   20.303000 H    1124 GLP     0.4000 ****
3373 TO2   -15.136000 -104.946000   17.035000 T    1125 GLP     0.6000 ****
3374 TO1   -16.546000 -114.718000   18.621000 T    1125 GLP    -0.6000 ****
3375 HO1   -17.955000 -124.491000   20.207000 H    1125 GLP     0.4000 ****
3376 TO2    -7.705000 -105.765000   16.954000 T    1126 GLP     0.6000 ****
3377 TO1    -8.422000 -115.613000   18.533000 T    1126 GLP    -0.6000 ****
3378 HO1    -9.139000 -125.462000   20.112000 H    1126 GLP     0.4000 ****
3379 TO2    -0.234000 -106.057000   16.874000 T    1127 GLP     0.6000 ****
3380 TO1    -0.255000 -115.933000   18.445000 T    1127 GLP    -0.6000 ****
3381 HO1    -0.277000 -125.809000   20.017000 H    1127 GLP     0.4000 ****
3382 TO2     7.239000 -105.823000   16.794000 T    1128 GLP     0.6000 ****
3383 TO1     7.914000 -115.677000   18.358000 T    1128 GLP    -0.6000 ****
3384 HO1     8.588000 -125.531000   19.921000 H    1128 GLP     0.4000 ****
3385 TO2    14.677000 -105.063000   16.713000 T    1129 GLP     0.6000 ****
3386 TO1    16.044000 -114.846000   18.270000 T    1129 GLP    -0.6000 ****
3387 HO1    17.411000 -124.629000   19.826000 H    1129 GLP     0.4000 ****
3388 TO2    22.043000 -103.781000   16.633000 T    1130 GLP     0.6000 ****
3389 TO1    24.096000 -113.444000   18.182000 T    1130 GLP    -0.6000 ****
3390 HO1    26.149000 -123.108000   19.731000 H    1130 GLP     0.4000 ****
3391 TO2    29.301000 -101.983000   16.553000 T    1131 GLP     0.6000 ****
3392 TO1    32.029000 -111.479000   18.094000 T    1131 GLP    -0.6000 ****
3393 HO1    34.757000 -120.975000   19.635000 H    1131 GLP     0.4000 ****
3394 TO2    36.413000  -99.678000   16.472000 T    1132 GLP     0.6000 ****
3395 TO1    39.804000 -108.960000   18.006000 T    1132 GLP    -0.6000 ****
3396 HO1    43.195000 -118.241000   19.540000 H    1132 GLP     0.4000 ****
3397 TO2    43.346000  -96.878000   16.392000 T    1133 GLP     0.6000 ****
3398 TO1    47.382000 -105.899000   17.918000 T    1133 GLP    -0.6000 ****
3399 HO1    51.418000 -114.920000   19.445000 H    1133 GLP     0.4000 ****
3400 TO2    50.064000  -93.597000   16.312000 T    1134 GLP     0.6000 ****
3401 TO1    54.726000 -102.313000   17.831000 T    1134 GLP    -0.6000 ****
3402 HO1    59.388000 -111.028000   19.349000 H    1134 GLP     0.4000 ****
3403 TO2    56.535000  -89.852000   16.231000 T    1135 GLP     0.6000 ****
3404 TO1    61.799000  -98.218000   17.743000 T    1135 GLP    -0.6000 ****
3405 HO1    67.064000 -106.585000   19.254000 H    1135 GLP     0.4000 ****
3406 TO2    62.726000  -85.660000   16.151000 T    1136 GLP     0.6000 ****
3407 TO1    68.567000  -93.636000   17.655000 T    1136 GLP    -0.6000 ****
3408 HO1    74.408000 -101.612000   19.159000 H    1136 GLP     0.4000 ****
3409 TO2    68.607000  -81.042000   16.071000 T    1137 GLP     0.6000 ****
3410 TO1    74.995000  -88.589000   17.567000 T    1137 GLP    -0.6000 ****
3411 HO1    81.383000  -96.135000   19.063000 H    1137 GLP     0.4000 ****
3412 TO2    74.148000  -76.022000   15.990000 T    1138 GLP     0.6000 ****
3413 TO1    81.052000  -83.101000   17.479000 T    1138 GLP    -0.6000 ****
3414 HO1    87.956000  -90.180000   18.968000 H    1138 GLP     0.4000 ****
3415 TO2    79.322000  -70.625000   15.910000 T    1139 GLP     0.6000 ****
3416 TO1    86.708000  -77.202000   17.391000 T    1139 GLP    -0.6000 ****
3417 HO1    94.094000  -83.778000   18.873000 H    1139 GLP     0.4000 ****
3418 TO2    84.103000  -64.877000   15.830000 T    1140 GLP     0.6000 ****
3419 TO1    91.935000  -70.919000   17.304000 T    1140 GLP    -0.6000 ****
3420 HO1    99.766000  -76.960000   18.778000 H    1140 GLP     0.4000 ****
3421 TO2    88.468000  -58.807000   15.749000 T    1141 GLP     0.6000 ****
3422 TO1    96.706000  -64.283000   17.216000 T    1141 GLP    -0.6000 ****
3423 HO1   104.944000  -69.759000   18.682000 H    1141 GLP     0.4000 ****
3424 TO2    92.396000  -52.445000   15.669000 T    1142 GLP     0.6000 ****
3425 TO1   100.999000  -57.329000   17.128000 T    1142 GLP    -0.6000 ****
3426 HO1   109.603000  -62.212000   18.587000 H    1142 GLP     0.4000 ****
3427 TO2    95.866000  -45.823000   15.588000 T    1143 GLP     0.6000 ****
3428 TO1   104.793000  -50.089000   17.040000 T    1143 GLP    -0.6000 ****
3429 HO1   113.719000  -54.356000   18.492000 H    1143 GLP     0.4000 ****
3430 TO2    98.862000  -38.972000   15.508000 T    1144 GLP     0.6000 ****
3431 TO1   108.067000  -42.601000   16.952000 T    1144 GLP    -0.6000 ****
3432 HO1   117.273000  -46.230000   18.396000 H    1144 GLP     0.4000 ****
3433 TO2   101.368000  -31.928000   15.428000 T    1145 GLP     0.6000 ****
3434 TO1   110.807000  -34.901000   16.864000 T    1145 GLP    -0.6000 ****
3435 HO1   120.247000  -37.875000   18.301000 H    1145 GLP     0.4000 ****
3436 TO2   103.373000  -24.726000   15.347000 T    1146 GLP     0.6000 ****
3437 TO1   112.999000  -27.028000   16.777000 T    1146 GLP    -0.6000 ****
3438 HO1   122.625000  -29.330000   18.206000 H    1146 GLP     0.4000 ****
3439 TO2   104.867000  -17.400000   15.267000 T    1147 GLP     0.6000 ****
3440 TO1   114.632000  -19.020000   16.689000 T    1147 GLP    -0.6000 ****
3441 HO1   124.397000  -20.640000   18.110000 H    1147 GLP     0.4000 ****
3442 TO2   105.842000   -9.987000   15.187000 T    1148 GLP     0.6000 ****
3443 TO1   115.698000  -10.917000   16.601000 T    1148 GLP    -0.6000 ****
3444 HO1   125.554000  -11.847000   18.015000 H    1148 GLP     0.4000 ****
3445 TO2   106.294000   -2.524000   15.106000 T    1149 GLP     0.6000 ****
3446 TO1   116.192000   -2.759000   16.513000 T    1149 GLP    -0.6000 ****
3447 HO1   126.089000   -2.994000   17.920000 H    1149 GLP     0.4000 ****
3448 TO2   106.220000    4.952000   15.026000 T    1150 GLP     0.6000 ****
3449 TO1   116.111000    5.414000   16.425000 T    1150 GLP    -0.6000 ****
3450 HO1   126.002000    5.875000   17.824000 H    1150 GLP     0.4000 ****
3451 TO2   105.621000   12.405000   14.946000 T    1151 GLP     0.6000 ****
3452 TO1   115.456000   13.560000   16.337000 T    1151 GLP    -0.6000 ****
3453 HO1   125.291000   14.715000   17.729000 H    1151 GLP     0.4000 ****
3454 TO2   104.499000   19.797000   14.865000 T    1152 GLP     0.6000 ****
3455 TO1   114.230000   21.641000   16.249000 T    1152 GLP    -0.6000 ****
3456 HO1   123.960000   23.484000   17.634000 H    1152 GLP     0.4000 ****
3457 TO2   102.861000   27.092000   14.785000 T    1153 GLP     0.6000 ****
3458 TO1   112.439000   29.615000   16.162000 T    1153 GLP    -0.6000 ****
3459 HO1   122.017000   32.138000   17.538000 H    1153 GLP     0.4000 ****
3460 TO2   100.714000   34.254000   14.705000 T    1154 GLP     0.6000 ****
3461 TO1   110.093000   37.444000   16.074000 T    1154 GLP    -0.6000 ****
3462 HO1   119.471000   40.633000   17.443000 H    1154 GLP     0.4000 ****
3463 TO2    98.070000   41.247000   14.624000 T    1155 GLP     0.6000 ****
3464 TO1   107.202000   45.088000   15.986000 T    1155 GLP    -0.6000 ****
3465 HO1   116.334000   48.929000   17.348000 H    1155 GLP     0.4000 ****
3466 TO2    94.941000   48.038000   14.544000 T    1156 GLP     0.6000 ****
3467 TO1   103.782000   52.511000   15.898000 T    1156 GLP    -0.6000 ****
3468 HO1   112.622000   56.984000   17.252000 H    1156 GLP     0.4000 ****
3469 TO2    91.343000   54.592000   14.464000 T    1157 GLP     0.6000 ****
3470 TO1    99.848000   59.675000   15.810000 T    1157 GLP    -0.6000 ****
3471 HO1   108.354000   64.759000   17.157000 H    1157 GLP     0.4000 ****
3472 TO2    87.293000   60.877000   14.383000 T    1158 GLP     0.6000 ****
3473 TO1    95.422000   66.545000   15.722000 T    1158 GLP    -0.6000 ****
3474 HO1   103.550000   72.214000   17.062000 H    1158 GLP     0.4000 ****
3475 TO2    82.812000   66.862000   14.303000 T    1159 GLP     0.6000 ****
3476 TO1    90.524000   73.088000   15.635000 T    1159 GLP    -0.6000 ****
3477 HO1    98.235000   79.314000   16.966000 H    1159 GLP     0.4000 ****
3478 TO2    77.922000   72.518000   14.222000 T    1160 GLP     0.6000 ****
3479 TO1    85.178000   79.270000   15.547000 T    1160 GLP    -0.6000 ****
3480 HO1    92.434000   86.023000   16.871000 H    1160 GLP     0.4000 ****
3481 TO2    72.647000   77.816000   14.142000 T    1161 GLP     0.6000 ****
3482 TO1    79.412000   85.062000   15.459000 T    1161 GLP    -0.6000 ****
3483 HO1    86.177000   92.308000   16.776000 H    1161 GLP     0.4000 ****
3484 TO2    67.013000   82.731000   14.062000 T    1162 GLP     0.6000 ****
3485 TO1    73.253000   90.435000   15.371000 T    1162 GLP    -0.6000 ****
3486 HO1    79.493000   98.139000   16.681000 H    1162 GLP     0.4000 ****
3487 TO2    61.048000   87.239000   13.981000 T    1163 GLP     0.6000 ****
3488 TO1    66.733000   95.362000   15.283000 T    1163 GLP    -0.6000 ****
3489 HO1    72.418000  103.486000   16.585000 H    1163 GLP     0.4000 ****
3490 TO2    54.782000   91.317000   13.901000 T    1164 GLP     0.6000 ****
3491 TO1    59.883000   99.820000   15.195000 T    1164 GLP    -0.6000 ****
3492 HO1    64.984000  108.323000   16.490000 H    1164 GLP     0.4000 ****
3493 TO2    48.244000   94.945000   13.821000 T    1165 GLP     0.6000 ****
3494 TO1    52.736000  103.785000   15.108000 T    1165 GLP    -0.6000 ****
3495 HO1    57.229000  112.626000   16.395000 H    1165 GLP     0.4000 ****
3496 TO2    41.468000   98.105000   13.740000 T    1166 GLP     0.6000 ****
3497 TO1    45.330000  107.240000   15.020000 T    1166 GLP    -0.6000 ****
3498 HO1    49.191000  116.375000   16.299000 H    1166 GLP     0.4000 ****
3499 TO2    34.487000  100.782000   13.660000 T    1167 GLP     0.6000 ****
3500 TO1    37.699000  110.166000   14.932000 T    1167 GLP    -0.6000 ****
3501 HO1    40.910000  119.551000   16.204000 H    1167 GLP     0.4000 ****
3502 TO2    27.336000  102.963000   13.580000 T    1168 GLP     0.6000 ****
3503 TO1    29.881000  112.550000   14.844000 T    1168 GLP    -0.6000 ****
3504 HO1    32.427000  122.138000   16.109000 H    1168 GLP     0.4000 ****
3505 TO2    20.049000  104.636000   13.499000 T    1169 GLP     0.6000 ****
3506 TO1    21.916000  114.380000   14.756000 T    1169 GLP    -0.6000 ****
3507 HO1    23.783000  124.123000   16.013000 H    1169 GLP     0.4000 ****
3508 TO2    12.663000  105.795000   13.419000 T    1170 GLP     0.6000 ****
3509 TO1    13.842000  115.646000   14.668000 T    1170 GLP    -0.6000 ****
3510 HO1    15.021000  125.498000   15.918000 H    1170 GLP     0.4000 ****
3511 TO2     5.213000  106.432000   13.339000 T    1171 GLP     0.6000 ****
3512 TO1     5.699000  116.343000   14.581000 T    1171 GLP    -0.6000 ****
3513 HO1     6.184000  126.254000   15.823000 H    1171 GLP     0.4000 ****
3514 TO2    -2.263000  106.546000   13.258000 T    1172 GLP     0.6000 ****
3515 TO1    -2.473000  116.467000   14.493000 T    1172 GLP    -0.6000 ****
3516 HO1    -2.684000  126.389000   15.727000 H    1172 GLP     0.4000 ****
3517 TO2    -9.728000  106.135000   13.178000 T    1173 GLP     0.6000 ****
3518 TO1   -10.634000  116.018000   14.405000 T    1173 GLP    -0.6000 ****
3519 HO1   -11.540000  125.901000   15.632000 H    1173 GLP     0.4000 ****
3520 TO2   -17.146000  105.202000   13.098000 T    1174 GLP     0.6000 ****
3521 TO1   -18.743000  114.998000   14.317000 T    1174 GLP    -0.6000 ****
3522 HO1   -20.339000  124.794000   15.537000 H    1174 GLP     0.4000 ****
3523 TO2   -24.480000  103.751000   13.017000 T    1175 GLP     0.6000 ****
3524 TO1   -26.760000  113.412000   14.229000 T    1175 GLP    -0.6000 ****
3525 HO1   -29.040000  123.073000   15.441000 H    1175 GLP     0.4000 ****
3526 TO2   -31.695000  101.789000   12.937000 T    1176 GLP     0.6000 ****
3527 TO1   -34.646000  111.267000   14.141000 T    1176 GLP    -0.6000 ****
3528 HO1   -37.598000  120.746000   15.346000 H    1176 GLP     0.4000 ****
3529 TO2   -38.755000   99.327000   12.856000 T    1177 GLP     0.6000 ****
3530 TO1   -42.363000  108.576000   14.054000 T    1177 GLP    -0.6000 ****
3531 HO1   -45.972000  117.825000   15.251000 H    1177 GLP     0.4000 ****
3532 TO2   -45.624000   96.375000   12.776000 T    1178 GLP     0.6000 ****
3533 TO1   -49.872000  105.349000   13.966000 T    1178 GLP    -0.6000 ****
3534 HO1   -54.121000  114.324000   15.155000 H    1178 GLP     0.4000 ****
3535 TO2   -52.270000   92.950000   12.696000 T    1179 GLP     0.6000 ****
3536 TO1   -57.137000  101.605000   13.878000 T    1179 GLP    -0.6000 ****
3537 HO1   -62.004000  110.260000   15.060000 H    1179 GLP     0.4000 ****
3538 TO2   -58.659000   89.067000   12.615000 T    1180 GLP     0.6000 ****
3539 TO1   -64.121000   97.361000   13.790000 T    1180 GLP    -0.6000 ****
3540 HO1   -69.583000  105.654000   14.965000 H    1180 GLP     0.4000 ****
3541 TO2   -64.761000   84.746000   12.535000 T    1181 GLP     0.6000 ****
3542 TO1   -70.791000   92.637000   13.702000 T    1181 GLP    -0.6000 ****
3543 HO1   -76.821000  100.529000   14.870000 H    1181 GLP     0.4000 ****
3544 TO2   -70.544000   80.008000   12.455000 T    1182 GLP     0.6000 ****
3545 TO1   -77.113000   87.458000   13.614000 T    1182 GLP    -0.6000 ****
3546 HO1   -83.682000   94.909000   14.774000 H    1182 GLP     0.4000 ****
3547 TO2   -75.982000   74.877000   12.374000 T    1183 GLP     0.6000 ****
3548 TO1   -83.057000   81.849000   13.527000 T    1183 GLP    -0.6000 ****
3549 HO1   -90.133000   88.822000   14.679000 H    1183 GLP     0.4000 ****
3550 TO2   -81.047000   69.377000   12.294000 T    1184 GLP     0.6000 ****
3551 TO1   -88.594000   75.837000   13.439000 T    1184 GLP    -0.6000 ****
3552 HO1   -96.141000   82.298000   14.584000 H    1184 GLP     0.4000 ****
3553 TO2   -85.714000   63.536000   12.214000 T    1185 GLP     0.6000 ****
3554 TO1   -93.696000   69.453000   13.351000 T    1185 GLP    -0.6000 ****
3555 HO1  -101.677000   75.369000   14.488000 H    1185 GLP     0.4000 ****
3556 TO2   -89.961000   57.383000   12.133000 T    1186 GLP     0.6000 ****
3557 TO1   -98.338000   62.726000   13.263000 T    1186 GLP    -0.6000 ****
3558 HO1  -106.715000   68.069000   14.393000 H    1186 GLP     0.4000 ****
3559 TO2   -93.766000   50.947000   12.053000 T    1187 GLP     0.6000 ****
3560 TO1  -102.497000   55.691000   13.175000 T    1187 GLP    -0.6000 ****
3561 HO1  -111.229000   60.435000   14.298000 H    1187 GLP     0.4000 ****
3562 TO2   -97.111000   44.261000   11.973000 T    1188 GLP     0.6000 ****
3563 TO1  -106.154000   48.382000   13.087000 T    1188 GLP    -0.6000 ****
3564 HO1  -115.197000   52.503000   14.202000 H    1188 GLP     0.4000 ****
3565 TO2   -99.980000   37.356000   11.892000 T    1189 GLP     0.6000 ****
3566 TO1  -109.290000   40.835000   13.000000 T    1189 GLP    -0.6000 ****
3567 HO1  -118.600000   44.313000   14.107000 H    1189 GLP     0.4000 ****
3568 TO2  -102.359000   30.268000   11.812000 T    1190 GLP     0.6000 ****
3569 TO1  -111.890000   33.087000   12.912000 T    1190 GLP    -0.6000 ****
3570 HO1  -121.421000   35.905000   14.012000 H    1190 GLP     0.4000 ****
3571 TO2  -104.235000   23.031000   11.732000 T    1191 GLP     0.6000 ****
3572 TO1  -113.941000   25.175000   12.824000 T    1191 GLP    -0.6000 ****
3573 HO1  -123.647000   27.320000   13.916000 H    1191 GLP     0.4000 ****
3574 TO2  -105.600000   15.680000   11.651000 T    1192 GLP     0.6000 ****
3575 TO1  -115.433000   17.140000   12.736000 T    1192 GLP    -0.6000 ****
3576 HO1  -125.266000   18.600000   13.821000 H    1192 GLP     0.4000 ****
3577 TO2  -106.447000    8.251000   11.571000 T    1193 GLP     0.6000 ****
3578 TO1  -116.359000    9.020000   12.648000 T    1193 GLP    -0.6000 ****
3579 HO1  -126.271000    9.788000   13.726000 H    1193 GLP     0.4000 ****
3580 TO2  -106.772000    0.782000   11.490000 T    1194 GLP     0.6000 ****
3581 TO1  -116.715000    0.855000   12.560000 T    1194 GLP    -0.6000 ****
3582 HO1  -126.657000    0.928000   13.630000 H    1194 GLP     0.4000 ****
3583 TO2  -106.574000   -6.692000   11.410000 T    1195 GLP     0.6000 ****
3584 TO1  -116.498000   -7.315000   12.473000 T    1195 GLP    -0.6000 ****
3585 HO1  -126.422000   -7.938000   13.535000 H    1195 GLP     0.4000 ****
3586 TO2  -105.853000  -14.134000   11.330000 T    1196 GLP     0.6000 ****
3587 TO1  -115.710000  -15.450000   12.385000 T    1196 GLP    -0.6000 ****
3588 HO1  -125.566000  -16.766000   13.440000 H    1196 GLP     0.4000 ****
3589 TO2  -104.613000  -21.507000   11.249000 T    1197 GLP     0.6000 ****
3590 TO1  -114.354000  -23.509000   12.297000 T    1197 GLP    -0.6000 ****
3591 HO1  -124.096000  -25.512000   13.344000 H    1197 GLP     0.4000 ****
3592 TO2  -102.860000  -28.775000   11.169000 T    1198 GLP     0.6000 ****
3593 TO1  -112.438000  -31.454000   12.209000 T    1198 GLP    -0.6000 ****
3594 HO1  -122.016000  -34.134000   13.249000 H    1198 GLP     0.4000 ****
3595 TO2  -100.603000  -35.903000   11.089000 T    1199 GLP     0.6000 ****
3596 TO1  -109.971000  -39.246000   12.121000 T    1199 GLP    -0.6000 ****
3597 HO1  -119.339000  -42.589000   13.154000 H    1199 GLP     0.4000 ****
3598 TO2   -97.853000  -42.855000   11.008000 T    1200 GLP     0.6000 ****
3599 TO1  -106.965000  -46.846000   12.033000 T    1200 GLP    -0.6000 ****
3600 HO1  -116.077000  -50.836000   13.058000 H    1200 GLP     0.4000 ****
3601 TO2   -94.623000  -49.598000   10.928000 T    1201 GLP     0.6000 ****
3602 TO1  -103.434000  -54.217000   11.946000 T    1201 GLP    -0.6000 ****
3603 HO1  -112.245000  -58.835000   12.963000 H    1201 GLP     0.4000 ****
3604 TO2   -90.930000  -56.099000   10.848000 T    1202 GLP     0.6000 ****
3605 TO1   -99.397000  -61.322000   11.858000 T    1202 GLP    -0.6000 ****
3606 HO1  -107.864000  -66.546000   12.868000 H    1202 GLP     0.4000 ****
3607 TO2   -86.791000  -62.325000   10.767000 T    1203 GLP     0.6000 ****
3608 TO1   -94.872000  -68.128000   11.770000 T    1203 GLP    -0.6000 ****
3609 HO1  -102.954000  -73.932000   12.773000 H    1203 GLP     0.4000 ****
3610 TO2   -82.226000  -68.247000   10.687000 T    1204 GLP     0.6000 ****
3611 TO1   -89.883000  -74.601000   11.682000 T    1204 GLP    -0.6000 ****
3612 HO1   -97.540000  -80.956000   12.677000 H    1204 GLP     0.4000 ****
3613 TO2   -77.259000  -73.834000   10.607000 T    1205 GLP     0.6000 ****
3614 TO1   -84.453000  -80.710000   11.594000 T    1205 GLP    -0.6000 ****
3615 HO1   -91.647000  -87.585000   12.582000 H    1205 GLP     0.4000 ****
3616 TO2   -71.913000  -79.061000   10.526000 T    1206 GLP     0.6000 ****
3617 TO1   -78.609000  -86.423000   11.506000 T    1206 GLP    -0.6000 ****
3618 HO1   -85.306000  -93.785000   12.487000 H    1206 GLP     0.4000 ****
3619 TO2   -66.215000  -83.901000   10.446000 T    1207 GLP     0.6000 ****
3620 TO1   -72.380000  -91.714000   11.419000 T    1207 GLP    -0.6000 ****
3621 HO1   -78.546000  -99.527000   12.391000 H    1207 GLP     0.4000 ****
3622 TO2   -60.192000  -88.331000   10.366000 T    1208 GLP     0.6000 ****
3623 TO1   -65.797000  -96.557000   11.331000 T    1208 GLP    -0.6000 ****
3624 HO1   -71.402000 -104.782000   12.296000 H    1208 GLP     0.4000 ****
3625 TO2   -53.874000  -92.330000   10.285000 T    1209 GLP     0.6000 ****
3626 TO1   -58.891000 -100.927000   11.243000 T    1209 GLP    -0.6000 ****
3627 HO1   -63.907000 -109.525000   12.201000 H    1209 GLP     0.4000 ****
3628 TO2   -47.292000  -95.876000   10.205000 T    1210 GLP     0.6000 ****
3629 TO1   -51.696000 -104.804000   11.155000 T    1210 GLP    -0.6000 ****
3630 HO1   -56.100000 -113.732000   12.105000 H    1210 GLP     0.4000 ****
3631 TO2   -40.479000  -98.954000   10.124000 T    1211 GLP     0.6000 ****
3632 TO1   -44.248000 -108.168000   11.067000 T    1211 GLP    -0.6000 ****
3633 HO1   -48.017000 -117.383000   12.010000 H    1211 GLP     0.4000 ****
3634 TO2   -33.467000 -101.548000   10.044000 T    1212 GLP     0.6000 ****
3635 TO1   -36.583000 -111.004000   10.979000 T    1212 GLP    -0.6000 ****
3636 HO1   -39.699000 -120.460000   11.915000 H    1212 GLP     0.4000 ****
3637 TO2   -26.291000 -103.646000    9.964000 T    1213 GLP     0.6000 ****
3638 TO1   -28.739000 -113.297000   10.892000 T    1213 GLP    -0.6000 ****
3639 HO1   -31.187000 -122.948000   11.819000 H    1213 GLP     0.4000 ****
3640 TO2   -18.985000 -105.237000    9.883000 T    1214 GLP     0.6000 ****
3641 TO1   -20.753000 -115.036000   10.804000 T    1214 GLP    -0.6000 ****
3642 HO1   -22.521000 -124.836000   11.724000 H    1214 GLP     0.4000 ****
3643 TO2   -11.587000 -106.314000    9.803000 T    1215 GLP     0.6000 ****
3644 TO1   -12.666000 -116.213000   10.716000 T    1215 GLP    -0.6000 ****
3645 HO1   -13.744000 -126.113000   11.629000 H    1215 GLP     0.4000 ****
3646 TO2    -4.131000 -106.871000    9.723000 T    1216 GLP     0.6000 ****
3647 TO1    -4.516000 -116.822000   10.628000 T    1216 GLP    -0.6000 ****
3648 HO1    -4.900000 -126.774000   11.533000 H    1216 GLP     0.4000 ****
3649 TO2     3.346000 -106.906000    9.642000 T    1217 GLP     0.6000 ****
3650 TO1     3.657000 -116.860000   10.540000 T    1217 GLP    -0.6000 ****
3651 HO1     3.969000 -126.815000   11.438000 H    1217 GLP     0.4000 ****
3652 TO2    10.806000 -106.418000    9.562000 T    1218 GLP     0.6000 ****
3653 TO1    11.812000 -116.327000   10.452000 T    1218 GLP    -0.6000 ****
3654 HO1    12.819000 -126.237000   11.343000 H    1218 GLP     0.4000 ****
3655 TO2    18.214000 -105.410000    9.482000 T    1219 GLP     0.6000 ****
3656 TO1    19.911000 -115.226000   10.365000 T    1219 GLP    -0.6000 ****
3657 HO1    21.607000 -125.041000   11.247000 H    1219 GLP     0.4000 ****
3658 TO2    25.534000 -103.887000    9.401000 T    1220 GLP     0.6000 ****
3659 TO1    27.912000 -113.561000   10.277000 T    1220 GLP    -0.6000 ****
3660 HO1    30.290000 -123.235000   11.152000 H    1220 GLP     0.4000 ****
3661 TO2    32.730000 -101.857000    9.321000 T    1221 GLP     0.6000 ****
3662 TO1    35.778000 -111.342000   10.189000 T    1221 GLP    -0.6000 ****
3663 HO1    38.825000 -120.826000   11.057000 H    1221 GLP     0.4000 ****
3664 TO2    39.766000  -99.329000    9.241000 T    1222 GLP     0.6000 ****
3665 TO1    43.469000 -108.578000   10.101000 T    1222 GLP    -0.6000 ****
3666 HO1    47.172000 -117.827000   10.961000 H    1222 GLP     0.4000 ****
3667 TO2    46.608000  -96.316000    9.160000 T    1223 GLP     0.6000 ****
3668 TO1    50.948000 -105.284000   10.013000 T    1223 GLP    -0.6000 ****
3669 HO1    55.288000 -114.253000   10.866000 H    1223 GLP     0.4000 ****
3670 TO2    53.224000  -92.832000    9.080000 T    1224 GLP     0.6000 ****
3671 TO1    58.180000 -101.476000    9.925000 T    1224 GLP    -0.6000 ****
3672 HO1    63.136000 -110.120000   10.771000 H    1224 GLP     0.4000 ****
3673 TO2    59.579000  -88.895000    9.000000 T    1225 GLP     0.6000 ****
3674 TO1    65.127000  -97.172000    9.838000 T    1225 GLP    -0.6000 ****
3675 HO1    70.675000 -105.450000   10.676000 H    1225 GLP     0.4000 ****
3676 TO2    65.645000  -84.523000    8.919000 T    1226 GLP     0.6000 ****
3677 TO1    71.757000  -92.394000    9.750000 T    1226 GLP    -0.6000 ****
3678 HO1    77.870000 -100.264000   10.580000 H    1226 GLP     0.4000 ****
3679 TO2    71.390000  -79.739000    8.839000 T    1227 GLP     0.6000 ****
3680 TO1    78.038000  -87.164000    9.662000 T    1227 GLP    -0.6000 ****
3681 HO1    84.685000  -94.589000   10.485000 H    1227 GLP     0.4000 ****
3682 TO2    76.787000  -74.565000    8.758000 T    1228 GLP     0.6000 ****
3683 TO1    83.938000  -81.508000    9.574000 T    1228 GLP    -0.6000 ****
3684 HO1    91.088000  -88.452000   10.390000 H    1228 GLP     0.4000 ****
3685 TO2    81.810000  -69.027000    8.678000 T    1229 GLP     0.6000 ****
3686 TO1    89.428000  -75.455000    9.486000 T    1229 GLP    -0.6000 ****
3687 HO1    97.046000  -81.882000   10.294000 H    1229 GLP     0.4000 ****
3688 TO2    86.434000  -63.152000    8.598000 T    1230 GLP     0.6000 ****
3689 TO1    94.483000  -69.033000    9.398000 T    1230 GLP    -0.6000 ****
3690 HO1   102.531000  -74.913000   10.199000 H    1230 GLP     0.4000 ****
3691 TO2    90.637000  -56.968000    8.517000 T    1231 GLP     0.6000 ****
3692 TO1    99.077000  -62.273000    9.311000 T    1231 GLP    -0.6000 ****
3693 HO1   107.516000  -67.578000   10.104000 H    1231 GLP     0.4000 ****
3694 TO2    94.397000  -50.507000    8.437000 T    1232 GLP     0.6000 ****
3695 TO1   103.187000  -55.210000    9.223000 T    1232 GLP    -0.6000 ****
3696 HO1   111.977000  -59.913000   10.008000 H    1232 GLP     0.4000 ****
3697 TO2    97.698000  -43.798000    8.357000 T    1233 GLP     0.6000 ****
3698 TO1   106.795000  -47.876000    9.135000 T    1233 GLP    -0.6000 ****
3699 HO1   115.892000  -51.955000    9.913000 H    1233 GLP     0.4000 ****
3700 TO2   100.522000  -36.875000    8.276000 T    1234 GLP     0.6000 ****
3701 TO1   109.882000  -40.309000    9.047000 T    1234 GLP    -0.6000 ****
3702 HO1   119.243000  -43.743000    9.818000 H    1234 GLP     0.4000 ****
3703 TO2   102.856000  -29.773000    8.196000 T    1235 GLP     0.6000 ****
3704 TO1   112.434000  -32.545000    8.959000 T    1235 GLP    -0.6000 ****
3705 HO1   122.011000  -35.317000    9.722000 H    1235 GLP     0.4000 ****
3706 TO2   104.689000  -22.524000    8.116000 T    1236 GLP     0.6000 ****
3707 TO1   114.437000  -24.622000    8.871000 T    1236 GLP    -0.6000 ****
3708 HO1   124.186000  -26.719000    9.627000 H    1236 GLP     0.4000 ****
3709 TO2   106.011000  -15.166000    8.035000 T    1237 GLP     0.6000 ****
3710 TO1   115.883000  -16.578000    8.784000 T    1237 GLP    -0.6000 ****
3711 HO1   125.754000  -17.990000    9.532000 H    1237 GLP     0.4000 ****
3712 TO2   106.817000   -7.733000    7.955000 T    1238 GLP     0.6000 ****
3713 TO1   116.764000   -8.453000    8.696000 T    1238 GLP    -0.6000 ****
3714 HO1   126.710000   -9.173000    9.436000 H    1238 GLP     0.4000 ****
3715 TO2   107.102000   -0.262000    7.875000 T    1239 GLP     0.6000 ****
3716 TO1   117.075000   -0.286000    8.608000 T    1239 GLP    -0.6000 ****
3717 HO1   127.048000   -0.310000    9.341000 H    1239 GLP     0.4000 ****
3718 TO2   106.865000    7.211000    7.794000 T    1240 GLP     0.6000 ****
3719 TO1   116.816000    7.882000    8.520000 T    1240 GLP    -0.6000 ****
3720 HO1   126.767000    8.554000    9.246000 H    1240 GLP     0.4000 ****
3721 TO2   106.108000   14.649000    7.714000 T    1241 GLP     0.6000 ****
3722 TO1   115.988000   16.013000    8.432000 T    1241 GLP    -0.6000 ****
3723 HO1   125.869000   17.377000    9.150000 H    1241 GLP     0.4000 ****
3724 TO2   104.833000   22.016000    7.634000 T    1242 GLP     0.6000 ****
3725 TO1   114.595000   24.066000    8.344000 T    1242 GLP    -0.6000 ****
3726 HO1   124.357000   26.116000    9.055000 H    1242 GLP     0.4000 ****
3727 TO2   103.048000   29.276000    7.553000 T    1243 GLP     0.6000 ****
3728 TO1   112.643000   32.002000    8.257000 T    1243 GLP    -0.6000 ****
3729 HO1   122.239000   34.728000    8.960000 H    1243 GLP     0.4000 ****
3730 TO2   100.760000   36.394000    7.473000 T    1244 GLP     0.6000 ****
3731 TO1   110.143000   39.783000    8.169000 T    1244 GLP    -0.6000 ****
3732 HO1   119.525000   43.172000    8.865000 H    1244 GLP     0.4000 ****
3733 TO2    97.982000   43.335000    7.392000 T    1245 GLP     0.6000 ****
3734 TO1   107.105000   47.370000    8.081000 T    1245 GLP    -0.6000 ****
3735 HO1   116.229000   51.406000    8.769000 H    1245 GLP     0.4000 ****
3736 TO2    94.726000   50.065000    7.312000 T    1246 GLP     0.6000 ****
3737 TO1   103.546000   54.727000    7.993000 T    1246 GLP    -0.6000 ****
3738 HO1   112.367000   59.389000    8.674000 H    1246 GLP     0.4000 ****
3739 TO2    91.008000   56.552000    7.232000 T    1247 GLP     0.6000 ****
3740 TO1    99.483000   61.818000    7.905000 T    1247 GLP    -0.6000 ****
3741 HO1   107.957000   67.084000    8.579000 H    1247 GLP     0.4000 ****
3742 TO2    86.848000   62.764000    7.151000 T    1248 GLP     0.6000 ****
3743 TO1    94.935000   68.608000    7.817000 T    1248 GLP    -0.6000 ****
3744 HO1   103.022000   74.453000    8.483000 H    1248 GLP     0.4000 ****
3745 TO2    82.264000   68.670000    7.071000 T    1249 GLP     0.6000 ****
3746 TO1    89.924000   75.065000    7.729000 T    1249 GLP    -0.6000 ****
3747 HO1    97.584000   81.459000    8.388000 H    1249 GLP     0.4000 ****
3748 TO2    77.279000   74.243000    6.991000 T    1250 GLP     0.6000 ****
3749 TO1    84.475000   81.156000    7.642000 T    1250 GLP    -0.6000 ****
3750 HO1    91.671000   88.069000    8.293000 H    1250 GLP     0.4000 ****
3751 TO2    71.918000   79.454000    6.910000 T    1251 GLP     0.6000 ****
3752 TO1    78.615000   86.853000    7.554000 T    1251 GLP    -0.6000 ****
3753 HO1    85.312000   94.251000    8.197000 H    1251 GLP     0.4000 ****
3754 TO2    66.207000   84.279000    6.830000 T    1252 GLP     0.6000 ****
3755 TO1    72.372000   92.127000    7.466000 T    1252 GLP    -0.6000 ****
3756 HO1    78.537000   99.975000    8.102000 H    1252 GLP     0.4000 ****
3757 TO2    60.173000   88.694000    6.750000 T    1253 GLP     0.6000 ****
3758 TO1    65.776000   96.953000    7.378000 T    1253 GLP    -0.6000 ****
3759 HO1    71.380000  105.212000    8.007000 H    1253 GLP     0.4000 ****
3760 TO2    53.846000   92.677000    6.669000 T    1254 GLP     0.6000 ****
3761 TO1    58.860000  101.307000    7.290000 T    1254 GLP    -0.6000 ****
3762 HO1    63.874000  109.937000    7.911000 H    1254 GLP     0.4000 ****
3763 TO2    47.257000   96.210000    6.589000 T    1255 GLP     0.6000 ****
3764 TO1    51.658000  105.169000    7.202000 T    1255 GLP    -0.6000 ****
3765 HO1    56.058000  114.127000    7.816000 H    1255 GLP     0.4000 ****
3766 TO2    40.438000   99.274000    6.509000 T    1256 GLP     0.6000 ****
3767 TO1    44.203000  108.519000    7.115000 T    1256 GLP    -0.6000 ****
3768 HO1    47.968000  117.763000    7.721000 H    1256 GLP     0.4000 ****
3769 TO2    33.421000  101.856000    6.428000 T    1257 GLP     0.6000 ****
3770 TO1    36.533000  111.341000    7.027000 T    1257 GLP    -0.6000 ****
3771 HO1    39.645000  120.825000    7.625000 H    1257 GLP     0.4000 ****
3772 TO2    26.242000  103.943000    6.348000 T    1258 GLP     0.6000 ****
3773 TO1    28.685000  113.621000    6.939000 T    1258 GLP    -0.6000 ****
3774 HO1    31.129000  123.300000    7.530000 H    1258 GLP     0.4000 ****
3775 TO2    18.934000  105.523000    6.268000 T    1259 GLP     0.6000 ****
3776 TO1    20.697000  115.349000    6.851000 T    1259 GLP    -0.6000 ****
3777 HO1    22.460000  125.175000    7.435000 H    1259 GLP     0.4000 ****
3778 TO2    11.534000  106.591000    6.187000 T    1260 GLP     0.6000 ****
3779 TO1    12.608000  116.516000    6.763000 T    1260 GLP    -0.6000 ****
3780 HO1    13.682000  126.442000    7.339000 H    1260 GLP     0.4000 ****
3781 TO2     4.078000  107.140000    6.107000 T    1261 GLP     0.6000 ****
3782 TO1     4.458000  117.117000    6.675000 T    1261 GLP    -0.6000 ****
3783 HO1     4.838000  127.093000    7.244000 H    1261 GLP     0.4000 ****
3784 TO2    -3.398000  107.169000    6.026000 T    1262 GLP     0.6000 ****
3785 TO1    -3.715000  117.148000    6.588000 T    1262 GLP    -0.6000 ****
3786 HO1    -4.031000  127.127000    7.149000 H    1262 GLP     0.4000 ****
3787 TO2   -10.858000  106.676000    5.946000 T    1263 GLP     0.6000 ****
3788 TO1   -11.870000  116.609000    6.500000 T    1263 GLP    -0.6000 ****
3789 HO1   -12.881000  126.542000    7.053000 H    1263 GLP     0.4000 ****
3790 TO2   -18.266000  105.664000    5.866000 T    1264 GLP     0.6000 ****
3791 TO1   -19.967000  115.503000    6.412000 T    1264 GLP    -0.6000 ****
3792 HO1   -21.668000  125.342000    6.958000 H    1264 GLP     0.4000 ****
3793 TO2   -25.585000  104.139000    5.785000 T    1265 GLP     0.6000 ****
3794 TO1   -27.968000  113.836000    6.324000 T    1265 GLP    -0.6000 ****
3795 HO1   -30.350000  123.533000    6.863000 H    1265 GLP     0.4000 ****
3796 TO2   -32.780000  102.107000    5.705000 T    1266 GLP     0.6000 ****
3797 TO1   -35.833000  111.615000    6.236000 T    1266 GLP    -0.6000 ****
3798 HO1   -38.885000  121.123000    6.768000 H    1266 GLP     0.4000 ****
3799 TO2   -39.816000   99.579000    5.625000 T    1267 GLP     0.6000 ****
3800 TO1   -43.524000  108.852000    6.148000 T    1267 GLP    -0.6000 ****
3801 HO1   -47.232000  118.124000    6.672000 H    1267 GLP     0.4000 ****
3802 TO2   -46.659000   96.567000    5.544000 T    1268 GLP     0.6000 ****
3803 TO1   -51.004000  105.559000    6.061000 T    1268 GLP    -0.6000 ****
3804 HO1   -55.349000  114.551000    6.577000 H    1268 GLP     0.4000 ****
3805 TO2   -53.275000   93.085000    5.464000 T    1269 GLP     0.6000 ****
3806 TO1   -58.236000  101.753000    5.973000 T    1269 GLP    -0.6000 ****
3807 HO1   -63.197000  110.421000    6.482000 H    1269 GLP     0.4000 ****
3808 TO2   -59.633000   89.151000    5.384000 T    1270 GLP     0.6000 ****
3809 TO1   -65.186000   97.452000    5.885000 T    1270 GLP    -0.6000 ****
3810 HO1   -70.739000  105.754000    6.386000 H    1270 GLP     0.4000 ****
3811 TO2   -65.701000   84.783000    5.303000 T    1271 GLP     0.6000 ****
3812 TO1   -71.819000   92.678000    5.797000 T    1271 GLP    -0.6000 ****
3813 HO1   -77.937000  100.573000    6.291000 H    1271 GLP     0.4000 ****
3814 TO2   -71.450000   80.004000    5.223000 T    1272 GLP     0.6000 ****
3815 TO1   -78.103000   87.453000    5.709000 T    1272 GLP    -0.6000 ****
3816 HO1   -84.757000   94.903000    6.196000 H    1272 GLP     0.4000 ****
3817 TO2   -76.852000   74.835000    5.143000 T    1273 GLP     0.6000 ****
3818 TO1   -84.008000   81.803000    5.621000 T    1273 GLP    -0.6000 ****
3819 HO1   -91.165000   88.772000    6.100000 H    1273 GLP     0.4000 ****
3820 TO2   -81.881000   69.303000    5.062000 T    1274 GLP     0.6000 ****
3821 TO1   -89.505000   75.756000    5.534000 T    1274 GLP    -0.6000 ****
3822 HO1   -97.130000   82.209000    6.005000 H    1274 GLP     0.4000 ****
3823 TO2   -86.512000   63.433000    4.982000 T    1275 GLP     0.6000 ****
3824 TO1   -94.568000   69.340000    5.446000 T    1275 GLP    -0.6000 ****
3825 HO1  -102.624000   75.247000    5.910000 H    1275 GLP     0.4000 ****
3826 TO2   -90.723000   57.256000    4.902000 T    1276 GLP     0.6000 ****
3827 TO1   -99.171000   62.587000    5.358000 T    1276 GLP    -0.6000 ****
3828 HO1  -107.619000   67.919000    5.814000 H    1276 GLP     0.4000 ****
3829 TO2   -94.494000   50.800000    4.821000 T    1277 GLP     0.6000 ****
3830 TO1  -103.293000   55.530000    5.270000 T    1277 GLP    -0.6000 ****
3831 HO1  -112.092000   60.260000    5.719000 H    1277 GLP     0.4000 ****
3832 TO2   -97.806000   44.097000    4.741000 T    1278 GLP     0.6000 ****
3833 TO1  -106.913000   48.203000    5.182000 T    1278 GLP    -0.6000 ****
3834 HO1  -116.020000   52.309000    5.624000 H    1278 GLP     0.4000 ****
3835 TO2  -100.643000   37.180000    4.660000 T    1279 GLP     0.6000 ****
3836 TO1  -110.014000   40.642000    5.094000 T    1279 GLP    -0.6000 ****
3837 HO1  -119.386000   44.104000    5.528000 H    1279 GLP     0.4000 ****
3838 TO2  -102.991000   30.081000    4.580000 T    1280 GLP     0.6000 ****
3839 TO1  -112.581000   32.883000    5.007000 T    1280 GLP    -0.6000 ****
3840 HO1  -122.171000   35.684000    5.433000 H    1280 GLP     0.4000 ****
3841 TO2  -104.839000   22.837000    4.500000 T    1281 GLP     0.6000 ****
3842 TO1  -114.601000   24.964000    4.919000 T    1281 GLP    -0.6000 ****
3843 HO1  -124.363000   27.090000    5.338000 H    1281 GLP     0.4000 ****
3844 TO2  -106.178000   15.482000    4.419000 T    1282 GLP     0.6000 ****
3845 TO1  -116.065000   16.923000    4.831000 T    1282 GLP    -0.6000 ****
3846 HO1  -125.952000   18.365000    5.242000 H    1282 GLP     0.4000 ****
3847 TO2  -107.002000    8.051000    4.339000 T    1283 GLP     0.6000 ****
3848 TO1  -116.965000    8.800000    4.743000 T    1283 GLP    -0.6000 ****
3849 HO1  -126.929000    9.550000    5.147000 H    1283 GLP     0.4000 ****
3850 TO2  -107.306000    0.581000    4.259000 T    1284 GLP     0.6000 ****
3851 TO1  -117.298000    0.635000    4.655000 T    1284 GLP    -0.6000 ****
3852 HO1  -127.290000    0.689000    5.052000 H    1284 GLP     0.4000 ****
3853 TO2  -107.089000   -6.893000    4.178000 T    1285 GLP     0.6000 ****
3854 TO1  -117.061000   -7.535000    4.567000 T    1285 GLP    -0.6000 ****
3855 HO1  -127.032000   -8.176000    4.957000 H    1285 GLP     0.4000 ****
3856 TO2  -106.352000  -14.333000    4.098000 T    1286 GLP     0.6000 ****
3857 TO1  -116.255000  -15.667000    4.480000 T    1286 GLP    -0.6000 ****
3858 HO1  -126.158000  -17.002000    4.861000 H    1286 GLP     0.4000 ****
3859 TO2  -105.099000  -21.703000    4.018000 T    1287 GLP     0.6000 ****
3860 TO1  -114.885000  -23.724000    4.392000 T    1287 GLP    -0.6000 ****
3861 HO1  -124.672000  -25.745000    4.766000 H    1287 GLP     0.4000 ****
3862 TO2  -103.336000  -28.969000    3.937000 T    1288 GLP     0.6000 ****
3863 TO1  -112.958000  -31.666000    4.304000 T    1288 GLP    -0.6000 ****
3864 HO1  -122.580000  -34.364000    4.671000 H    1288 GLP     0.4000 ****
3865 TO2  -101.071000  -36.094000    3.857000 T    1289 GLP     0.6000 ****
3866 TO1  -110.482000  -39.455000    4.216000 T    1289 GLP    -0.6000 ****
3867 HO1  -119.894000  -42.816000    4.575000 H    1289 GLP     0.4000 ****
3868 TO2   -98.315000  -43.044000    3.777000 T    1290 GLP     0.6000 ****
3869 TO1  -107.470000  -47.052000    4.128000 T    1290 GLP    -0.6000 ****
3870 HO1  -116.625000  -51.060000    4.480000 H    1290 GLP     0.4000 ****
3871 TO2   -95.083000  -49.785000    3.696000 T    1291 GLP     0.6000 ****
3872 TO1  -103.937000  -54.421000    4.040000 T    1291 GLP    -0.6000 ****
3873 HO1  -112.790000  -59.057000    4.385000 H    1291 GLP     0.4000 ****
3874 TO2   -91.388000  -56.285000    3.616000 T    1292 GLP     0.6000 ****
3875 TO1   -99.898000  -61.526000    3.953000 T    1292 GLP    -0.6000 ****
3876 HO1  -108.408000  -66.768000    4.289000 H    1292 GLP     0.4000 ****
3877 TO2   -87.251000  -62.512000    3.536000 T    1293 GLP     0.6000 ****
3878 TO1   -95.375000  -68.333000    3.865000 T    1293 GLP    -0.6000 ****
3879 HO1  -103.500000  -74.154000    4.194000 H    1293 GLP     0.4000 ****
3880 TO2   -82.689000  -68.436000    3.455000 T    1294 GLP     0.6000 ****
3881 TO1   -90.389000  -74.809000    3.777000 T    1294 GLP    -0.6000 ****
3882 HO1   -98.089000  -81.181000    4.099000 H    1294 GLP     0.4000 ****
3883 TO2   -77.727000  -74.028000    3.375000 T    1295 GLP     0.6000 ****
3884 TO1   -84.964000  -80.921000    3.689000 T    1295 GLP    -0.6000 ****
3885 HO1   -92.202000  -87.814000    4.003000 H    1295 GLP     0.4000 ****
3886 TO2   -72.387000  -79.261000    3.294000 T    1296 GLP     0.6000 ****
3887 TO1   -79.127000  -86.641000    3.601000 T    1296 GLP    -0.6000 ****
3888 HO1   -85.868000  -94.022000    3.908000 H    1296 GLP     0.4000 ****
3889 TO2   -66.696000  -84.109000    3.214000 T    1297 GLP     0.6000 ****
3890 TO1   -72.906000  -91.941000    3.513000 T    1297 GLP    -0.6000 ****
3891 HO1   -79.117000  -99.773000    3.813000 H    1297 GLP     0.4000 ****
3892 TO2   -60.681000  -88.549000    3.134000 T    1298 GLP     0.6000 ****
3893 TO1   -66.331000  -96.795000    3.426000 T    1298 GLP    -0.6000 ****
3894 HO1   -71.982000 -105.040000    3.717000 H    1298 GLP     0.4000 ****
3895 TO2   -54.371000  -92.560000    3.053000 T    1299 GLP     0.6000 ****
3896 TO1   -59.434000 -101.179000    3.338000 T    1299 GLP    -0.6000 ****
3897 HO1   -64.497000 -109.798000    3.622000 H    1299 GLP     0.4000 ****
3898 TO2   -47.798000  -96.122000    2.973000 T    1300 GLP     0.6000 ****
3899 TO1   -52.249000 -105.073000    3.250000 T    1300 GLP    -0.6000 ****
3900 HO1   -56.700000 -114.023000    3.527000 H    1300 GLP     0.4000 ****
3901 TO2   -40.993000  -99.218000    2.893000 T    1301 GLP     0.6000 ****
3902 TO1   -44.810000 -108.457000    3.162000 T    1301 GLP    -0.6000 ****
3903 HO1   -48.627000 -117.696000    3.431000 H    1301 GLP     0.4000 ****
3904 TO2   -33.988000 -101.832000    2.812000 T    1302 GLP     0.6000 ****
3905 TO1   -37.153000 -111.315000    3.074000 T    1302 GLP    -0.6000 ****
3906 HO1   -40.318000 -120.797000    3.336000 H    1302 GLP     0.4000 ****
3907 TO2   -26.819000 -103.953000    2.732000 T    1303 GLP     0.6000 ****
3908 TO1   -29.316000 -113.633000    2.986000 T    1303 GLP    -0.6000 ****
3909 HO1   -31.814000 -123.313000    3.241000 H    1303 GLP     0.4000 ****
3910 TO2   -19.520000 -105.570000    2.652000 T    1304 GLP     0.6000 ****
3911 TO1   -21.337000 -115.400000    2.899000 T    1304 GLP    -0.6000 ****
3912 HO1   -23.155000 -125.230000    3.145000 H    1304 GLP     0.4000 ****
3913 TO2   -12.125000 -106.674000    2.571000 T    1305 GLP     0.6000 ****
3914 TO1   -13.254000 -116.607000    2.811000 T    1305 GLP    -0.6000 ****
3915 HO1   -14.383000 -126.540000    3.050000 H    1305 GLP     0.4000 ****
3916 TO2    -4.672000 -107.261000    2.491000 T    1306 GLP     0.6000 ****
3917 TO1    -5.107000 -117.249000    2.723000 T    1306 GLP    -0.6000 ****
3918 HO1    -5.542000 -127.237000    2.955000 H    1306 GLP     0.4000 ****
3919 TO2     2.804000 -107.328000    2.411000 T    1307 GLP     0.6000 ****
3920 TO1     3.065000 -117.322000    2.635000 T    1307 GLP    -0.6000 ****
3921 HO1     3.326000 -127.316000    2.860000 H    1307 GLP     0.4000 ****
3922 TO2    10.267000 -106.874000    2.330000 T    1308 GLP     0.6000 ****
3923 TO1    11.223000 -116.826000    2.547000 T    1308 GLP    -0.6000 ****
3924 HO1    12.179000 -126.778000    2.764000 H    1308 GLP     0.4000 ****
3925 TO2    17.679000 -105.903000    2.250000 T    1309 GLP     0.6000 ****
3926 TO1    19.326000 -115.764000    2.459000 T    1309 GLP    -0.6000 ****
3927 HO1    20.972000 -125.625000    2.669000 H    1309 GLP     0.4000 ****
3928 TO2    25.007000 -104.417000    2.170000 T    1310 GLP     0.6000 ****
3929 TO1    27.335000 -114.140000    2.372000 T    1310 GLP    -0.6000 ****
3930 HO1    29.664000 -123.863000    2.574000 H    1310 GLP     0.4000 ****
3931 TO2    32.213000 -102.425000    2.089000 T    1311 GLP     0.6000 ****
3932 TO1    35.212000 -111.963000    2.284000 T    1311 GLP    -0.6000 ****
3933 HO1    38.212000 -121.500000    2.478000 H    1311 GLP     0.4000 ****
3934 TO2    39.263000  -99.937000    2.009000 T    1312 GLP     0.6000 ****
3935 TO1    42.919000 -109.243000    2.196000 T    1312 GLP    -0.6000 ****
3936 HO1    46.575000 -118.548000    2.383000 H    1312 GLP     0.4000 ****
3937 TO2    46.123000  -96.964000    1.928000 T    1313 GLP     0.6000 ****
3938 TO1    50.417000 -105.993000    2.108000 T    1313 GLP    -0.6000 ****
3939 HO1    54.712000 -115.022000    2.288000 H    1313 GLP     0.4000 ****
3940 TO2    52.759000  -93.520000    1.848000 T    1314 GLP     0.6000 ****
3941 TO1    57.672000 -102.229000    2.020000 T    1314 GLP    -0.6000 ****
3942 HO1    62.584000 -110.937000    2.192000 H    1314 GLP     0.4000 ****
3943 TO2    59.139000  -89.624000    1.768000 T    1315 GLP     0.6000 ****
3944 TO1    64.646000  -97.969000    1.932000 T    1315 GLP    -0.6000 ****
3945 HO1    70.153000 -106.315000    2.097000 H    1315 GLP     0.4000 ****
3946 TO2    65.233000  -85.292000    1.687000 T    1316 GLP     0.6000 ****
3947 TO1    71.308000  -93.234000    1.845000 T    1316 GLP    -0.6000 ****
3948 HO1    77.382000 -101.176000    2.002000 H    1316 GLP     0.4000 ****
3949 TO2    71.011000  -80.547000    1.607000 T    1317 GLP     0.6000 ****
3950 TO1    77.623000  -88.048000    1.757000 T    1317 GLP    -0.6000 ****
3951 HO1    84.235000  -95.548000    1.906000 H    1317 GLP     0.4000 ****
3952 TO2    76.444000  -75.412000    1.527000 T    1318 GLP     0.6000 ****
3953 TO1    83.562000  -82.434000    1.669000 T    1318 GLP    -0.6000 ****
3954 HO1    90.681000  -89.456000    1.811000 H    1318 GLP     0.4000 ****
3955 TO2    81.507000  -69.910000    1.446000 T    1319 GLP     0.6000 ****
3956 TO1    89.097000  -76.420000    1.581000 T    1319 GLP    -0.6000 ****
3957 HO1    96.686000  -82.930000    1.716000 H    1319 GLP     0.4000 ****
3958 TO2    86.175000  -64.070000    1.366000 T    1320 GLP     0.6000 ****
3959 TO1    94.199000  -70.036000    1.493000 T    1320 GLP    -0.6000 ****
3960 HO1   102.223000  -76.002000    1.620000 H    1320 GLP     0.4000 ****
3961 TO2    90.425000  -57.920000    1.286000 T    1321 GLP     0.6000 ****
3962 TO1    98.845000  -63.313000    1.405000 T    1321 GLP    -0.6000 ****
3963 HO1   107.265000  -68.706000    1.525000 H    1321 GLP     0.4000 ****
3964 TO2    94.236000  -51.488000    1.205000 T    1322 GLP     0.6000 ****
3965 TO1   103.012000  -56.282000    1.318000 T    1322 GLP    -0.6000 ****
3966 HO1   111.787000  -61.077000    1.430000 H    1322 GLP     0.4000 ****
3967 TO2    97.591000  -44.807000    1.125000 T    1323 GLP     0.6000 ****
3968 TO1   106.679000  -48.979000    1.230000 T    1323 GLP    -0.6000 ****
3969 HO1   115.766000  -53.151000    1.334000 H    1323 GLP     0.4000 ****
3970 TO2   100.473000  -37.908000    1.045000 T    1324 GLP     0.6000 ****
3971 TO1   109.829000  -41.438000    1.142000 T    1324 GLP    -0.6000 ****
3972 HO1   119.185000  -44.968000    1.239000 H    1324 GLP     0.4000 ****
3973 TO2   102.868000  -30.826000    0.964000 T    1325 GLP     0.6000 ****
3974 TO1   112.447000  -33.696000    1.054000 T    1325 GLP    -0.6000 ****
3975 HO1   122.026000  -36.566000    1.144000 H    1325 GLP     0.4000 ****
3976 TO2   104.764000  -23.594000    0.884000 T    1326 GLP     0.6000 ****
3977 TO1   114.519000  -25.791000    0.966000 T    1326 GLP    -0.6000 ****
3978 HO1   124.275000  -27.988000    1.048000 H    1326 GLP     0.4000 ****
3979 TO2   106.152000  -16.247000    0.804000 T    1327 GLP     0.6000 ****
3980 TO1   116.037000  -17.760000    0.878000 T    1327 GLP    -0.6000 ****
3981 HO1   125.922000  -19.273000    0.953000 H    1327 GLP     0.4000 ****
3982 TO2   107.026000   -8.822000    0.723000 T    1328 GLP     0.6000 ****
3983 TO1   116.992000   -9.644000    0.791000 T    1328 GLP    -0.6000 ****
3984 HO1   126.958000  -10.465000    0.858000 H    1328 GLP     0.4000 ****
3985 TO2   107.381000   -1.354000    0.643000 T    1329 GLP     0.6000 ****
3986 TO1   117.380000   -1.481000    0.703000 T    1329 GLP    -0.6000 ****
3987 HO1   127.379000   -1.607000    0.763000 H    1329 GLP     0.4000 ****
3988 TO2   107.216000    6.120000    0.562000 T    1330 GLP     0.6000 ****
3989 TO1   117.199000    6.690000    0.615000 T    1330 GLP    -0.6000 ****
3990 HO1   127.183000    7.260000    0.667000 H    1330 GLP     0.4000 ****
3991 TO2   106.530000   13.565000    0.482000 T    1331 GLP     0.6000 ****
3992 TO1   116.450000   14.828000    0.527000 T    1331 GLP    -0.6000 ****
3993 HO1   126.370000   16.091000    0.572000 H    1331 GLP     0.4000 ****
3994 TO2   105.329000   20.944000    0.402000 T    1332 GLP     0.6000 ****
3995 TO1   115.137000   22.894000    0.439000 T    1332 GLP    -0.6000 ****
3996 HO1   124.945000   24.844000    0.477000 H    1332 GLP     0.4000 ****
3997 TO2   103.617000   28.222000    0.321000 T    1333 GLP     0.6000 ****
3998 TO1   113.265000   30.849000    0.351000 T    1333 GLP    -0.6000 ****
3999 HO1   122.914000   33.477000    0.381000 H    1333 GLP     0.4000 ****
4000 TO2   101.402000   35.362000    0.241000 T    1334 GLP     0.6000 ****
4001 TO1   110.845000   38.655000    0.264000 T    1334 GLP    -0.6000 ****
4002 HO1   120.287000   41.948000    0.286000 H    1334 GLP     0.4000 ****
4003 TO2    98.696000   42.332000    0.161000 T    1335 GLP     0.6000 ****
4004 TO1   107.887000   46.274000    0.176000 T    1335 GLP    -0.6000 ****
4005 HO1   117.077000   50.215000    0.191000 H    1335 GLP     0.4000 ****
4006 TO2    95.512000   49.096000    0.080000 T    1336 GLP     0.6000 ****
4007 TO1   104.406000   53.668000    0.088000 T    1336 GLP    -0.6000 ****
4008 HO1   113.300000   58.239000    0.095000 H    1336 GLP     0.4000 ****
4009 TO2    91.865000   55.622000    0.000000 T    1337 GLP     0.6000 ****
4010 TO1   100.419000   60.802000    0.000000 T    1337 GLP    -0.6000 ****
4011 HO1   108.973000   65.981000    0.000000 H    1337 GLP     0.4000 ****
4012 TO2    87.772000   61.879000   -0.080000 T    1338 GLP     0.6000 ****
4013 TO1    95.945000   67.641000   -0.088000 T    1338 GLP    -0.6000 ****
4014 HO1   104.118000   73.403000   -0.095000 H    1338 GLP     0.4000 ****
4015 TO2    83.254000   67.836000   -0.161000 T    1339 GLP     0.6000 ****
4016 TO1    91.007000   74.152000   -0.176000 T    1339 GLP    -0.6000 ****
4017 HO1    98.759000   80.469000   -0.191000 H    1339 GLP     0.4000 ****
4018 TO2    78.333000   73.464000   -0.241000 T    1340 GLP     0.6000 ****
4019 TO1    85.627000   80.304000   -0.264000 T    1340 GLP    -0.6000 ****
4020 HO1    92.921000   87.145000   -0.286000 H    1340 GLP     0.4000 ****
4021 TO2    73.031000   78.735000   -0.321000 T    1341 GLP     0.6000 ****
4022 TO1    79.832000   86.067000   -0.351000 T    1341 GLP    -0.6000 ****
4023 HO1    86.632000   93.399000   -0.381000 H    1341 GLP     0.4000 ****
4024 TO2    67.376000   83.626000   -0.402000 T    1342 GLP     0.6000 ****
4025 TO1    73.650000   91.413000   -0.439000 T    1342 GLP    -0.6000 ****
4026 HO1    79.924000   99.200000   -0.477000 H    1342 GLP     0.4000 ****
4027 TO2    61.395000   88.110000   -0.482000 T    1343 GLP     0.6000 ****
4028 TO1    67.111000   96.315000   -0.527000 T    1343 GLP    -0.6000 ****
4029 HO1    72.828000  104.520000   -0.572000 H    1343 GLP     0.4000 ****
4030 TO2    55.115000   92.168000   -0.562000 T    1344 GLP     0.6000 ****
4031 TO1    60.247000  100.751000   -0.615000 T    1344 GLP    -0.6000 ****
4032 HO1    65.380000  109.333000   -0.667000 H    1344 GLP     0.4000 ****
4033 TO2    48.569000   95.779000   -0.643000 T    1345 GLP     0.6000 ****
4034 TO1    53.091000  104.698000   -0.703000 T    1345 GLP    -0.6000 ****
4035 HO1    57.614000  113.616000   -0.763000 H    1345 GLP     0.4000 ****
4036 TO2    41.787000   98.926000   -0.723000 T    1346 GLP     0.6000 ****
4037 TO1    45.678000  108.137000   -0.791000 T    1346 GLP    -0.6000 ****
4038 HO1    49.569000  117.349000   -0.858000 H    1346 GLP     0.4000 ****
4039 TO2    34.803000  101.593000   -0.804000 T    1347 GLP     0.6000 ****
4040 TO1    38.043000  111.053000   -0.878000 T    1347 GLP    -0.6000 ****
4041 HO1    41.284000  120.513000   -0.953000 H    1347 GLP     0.4000 ****
4042 TO2    27.650000  103.767000   -0.884000 T    1348 GLP     0.6000 ****
4043 TO1    30.224000  113.430000   -0.966000 T    1348 GLP    -0.6000 ****
4044 HO1    32.799000  123.092000   -1.048000 H    1348 GLP     0.4000 ****
4045 TO2    20.363000  105.439000   -0.964000 T    1349 GLP     0.6000 ****
4046 TO1    22.259000  115.257000   -1.054000 T    1349 GLP    -0.6000 ****
4047 HO1    24.155000  125.075000   -1.144000 H    1349 GLP     0.4000 ****
4048 TO2    12.977000  106.600000   -1.045000 T    1350 GLP     0.6000 ****
4049 TO1    14.185000  116.526000   -1.142000 T    1350 GLP    -0.6000 ****
4050 HO1    15.394000  126.452000   -1.239000 H    1350 GLP     0.4000 ****
4051 TO2     5.529000  107.243000   -1.125000 T    1351 GLP     0.6000 ****
4052 TO1     6.043000  117.230000   -1.230000 T    1351 GLP    -0.6000 ****
4053 HO1     6.558000  127.216000   -1.334000 H    1351 GLP     0.4000 ****
4054 TO2    -1.947000  107.367000   -1.205000 T    1352 GLP     0.6000 ****
4055 TO1    -2.128000  117.365000   -1.318000 T    1352 GLP    -0.6000 ****
4056 HO1    -2.309000  127.363000   -1.430000 H    1352 GLP     0.4000 ****
4057 TO2    -9.412000  106.971000   -1.286000 T    1353 GLP     0.6000 ****
4058 TO1   -10.289000  116.931000   -1.405000 T    1353 GLP    -0.6000 ****
4059 HO1   -11.165000  126.892000   -1.525000 H    1353 GLP     0.4000 ****
4060 TO2   -16.832000  106.056000   -1.366000 T    1354 GLP     0.6000 ****
4061 TO1   -18.400000  115.931000   -1.493000 T    1354 GLP    -0.6000 ****
4062 HO1   -19.967000  125.807000   -1.620000 H    1354 GLP     0.4000 ****
4063 TO2   -24.171000  104.626000   -1.446000 T    1355 GLP     0.6000 ****
4064 TO1   -26.421000  114.369000   -1.581000 T    1355 GLP    -0.6000 ****
4065 HO1   -28.672000  124.111000   -1.716000 H    1355 GLP     0.4000 ****
4066 TO2   -31.392000  102.690000   -1.527000 T    1356 GLP     0.6000 ****
4067 TO1   -34.315000  112.252000   -1.669000 T    1356 GLP    -0.6000 ****
4068 HO1   -37.238000  121.814000   -1.811000 H    1356 GLP     0.4000 ****
4069 TO2   -38.461000  100.255000   -1.607000 T    1357 GLP     0.6000 ****
4070 TO1   -42.042000  109.591000   -1.757000 T    1357 GLP    -0.6000 ****
4071 HO1   -45.623000  118.926000   -1.906000 H    1357 GLP     0.4000 ****
4072 TO2   -45.343000   97.335000   -1.687000 T    1358 GLP     0.6000 ****
4073 TO1   -49.565000  106.399000   -1.845000 T    1358 GLP    -0.6000 ****
4074 HO1   -53.787000  115.462000   -2.002000 H    1358 GLP     0.4000 ****
4075 TO2   -52.005000   93.943000   -1.768000 T    1359 GLP     0.6000 ****
4076 TO1   -56.848000  102.691000   -1.932000 T    1359 GLP    -0.6000 ****
4077 HO1   -61.691000  111.438000   -2.097000 H    1359 GLP     0.4000 ****
4078 TO2   -58.416000   90.095000   -1.848000 T    1360 GLP     0.6000 ****
4079 TO1   -63.855000   98.485000   -2.020000 T    1360 GLP    -0.6000 ****
4080 HO1   -69.294000  106.874000   -2.192000 H    1360 GLP     0.4000 ****
4081 TO2   -64.542000   85.811000   -1.928000 T    1361 GLP     0.6000 ****
4082 TO1   -70.552000   93.801000   -2.108000 T    1361 GLP    -0.6000 ****
4083 HO1   -76.562000  101.792000   -2.288000 H    1361 GLP     0.4000 ****
4084 TO2   -70.356000   81.111000   -2.009000 T    1362 GLP     0.6000 ****
4085 TO1   -76.908000   88.663000   -2.196000 T    1362 GLP    -0.6000 ****
4086 HO1   -83.459000   96.216000   -2.383000 H    1362 GLP     0.4000 ****
4087 TO2   -75.829000   76.017000   -2.089000 T    1363 GLP     0.6000 ****
4088 TO1   -82.890000   83.096000   -2.284000 T    1363 GLP    -0.6000 ****
4089 HO1   -89.951000   90.174000   -2.478000 H    1363 GLP     0.4000 ****
4090 TO2   -80.934000   70.555000   -2.170000 T    1364 GLP     0.6000 ****
4091 TO1   -88.470000   77.125000   -2.372000 T    1364 GLP    -0.6000 ****
4092 HO1   -96.006000   83.695000   -2.574000 H    1364 GLP     0.4000 ****
4093 TO2   -85.646000   64.751000   -2.250000 T    1365 GLP     0.6000 ****
4094 TO1   -93.621000   70.780000   -2.459000 T    1365 GLP    -0.6000 ****
4095 HO1  -101.596000   76.810000   -2.669000 H    1365 GLP     0.4000 ****
4096 TO2   -89.943000   58.633000   -2.330000 T    1366 GLP     0.6000 ****
4097 TO1   -98.318000   64.093000   -2.547000 T    1366 GLP    -0.6000 ****
4098 HO1  -106.693000   69.552000   -2.764000 H    1366 GLP     0.4000 ****
4099 TO2   -93.804000   52.231000   -2.411000 T    1367 GLP     0.6000 ****
4100 TO1  -102.538000   57.094000   -2.635000 T    1367 GLP    -0.6000 ****
4101 HO1  -111.273000   61.958000   -2.860000 H    1367 GLP     0.4000 ****
4102 TO2   -97.209000   45.575000   -2.491000 T    1368 GLP     0.6000 ****
4103 TO1  -106.261000   49.819000   -2.723000 T    1368 GLP    -0.6000 ****
4104 HO1  -115.313000   54.063000   -2.955000 H    1368 GLP     0.4000 ****
4105 TO2  -100.144000   38.699000   -2.571000 T    1369 GLP     0.6000 ****
4106 TO1  -109.469000   42.302000   -2.811000 T    1369 GLP    -0.6000 ****
4107 HO1  -118.794000   45.906000   -3.050000 H    1369 GLP     0.4000 ****
4108 TO2  -102.592000   31.635000   -2.652000 T    1370 GLP     0.6000 ****
4109 TO1  -112.145000   34.581000   -2.899000 T    1370 GLP    -0.6000 ****
4110 HO1  -121.698000   37.526000   -3.145000 H    1370 GLP     0.4000 ****
4111 TO2  -104.543000   24.418000   -2.732000 T    1371 GLP     0.6000 ****
4112 TO1  -114.278000   26.691000   -2.986000 T    1371 GLP    -0.6000 ****
4113 HO1  -124.013000   28.965000   -3.241000 H    1371 GLP     0.4000 ****
4114 TO2  -105.987000   17.082000   -2.812000 T    1372 GLP     0.6000 ****
4115 TO1  -115.856000   18.673000   -3.074000 T    1372 GLP    -0.6000 ****
4116 HO1  -125.725000   20.264000   -3.336000 H    1372 GLP     0.4000 ****
4117 TO2  -106.917000    9.664000   -2.893000 T    1373 GLP     0.6000 ****
4118 TO1  -116.873000   10.564000   -3.162000 T    1373 GLP    -0.6000 ****
4119 HO1  -126.828000   11.464000   -3.431000 H    1373 GLP     0.4000 ****
4120 TO2  -107.328000    2.199000   -2.973000 T    1374 GLP     0.6000 ****
4121 TO1  -117.322000    2.404000   -3.250000 T    1374 GLP    -0.6000 ****
4122 HO1  -127.316000    2.609000   -3.527000 H    1374 GLP     0.4000 ****
4123 TO2  -107.218000   -5.276000   -3.053000 T    1375 GLP     0.6000 ****
4124 TO1  -117.202000   -5.767000   -3.338000 T    1375 GLP    -0.6000 ****
4125 HO1  -127.186000   -6.259000   -3.622000 H    1375 GLP     0.4000 ****
4126 TO2  -106.589000  -12.726000   -3.134000 T    1376 GLP     0.6000 ****
4127 TO1  -116.514000  -13.911000   -3.426000 T    1376 GLP    -0.6000 ****
4128 HO1  -126.439000  -15.096000   -3.717000 H    1376 GLP     0.4000 ****
4129 TO2  -105.442000  -20.114000   -3.214000 T    1377 GLP     0.6000 ****
4130 TO1  -115.261000  -21.986000   -3.513000 T    1377 GLP    -0.6000 ****
4131 HO1  -125.079000  -23.859000   -3.813000 H    1377 GLP     0.4000 ****
4132 TO2  -103.784000  -27.404000   -3.294000 T    1378 GLP     0.6000 ****
4133 TO1  -113.448000  -29.955000   -3.601000 T    1378 GLP    -0.6000 ****
4134 HO1  -123.112000  -32.507000   -3.908000 H    1378 GLP     0.4000 ****
4135 TO2  -101.623000  -34.560000   -3.375000 T    1379 GLP     0.6000 ****
4136 TO1  -111.085000  -37.779000   -3.689000 T    1379 GLP    -0.6000 ****
4137 HO1  -120.548000  -40.997000   -4.003000 H    1379 GLP     0.4000 ****
4138 TO2   -98.968000  -41.549000   -3.455000 T    1380 GLP     0.6000 ****
4139 TO1  -108.184000  -45.418000   -3.777000 T    1380 GLP    -0.6000 ****
4140 HO1  -117.399000  -49.287000   -4.099000 H    1380 GLP     0.4000 ****
4141 TO2   -95.833000  -48.337000   -3.536000 T    1381 GLP     0.6000 ****
4142 TO1  -104.757000  -52.838000   -3.865000 T    1381 GLP    -0.6000 ****
4143 HO1  -113.681000  -57.339000   -4.194000 H    1381 GLP     0.4000 ****
4144 TO2   -92.234000  -54.889000   -3.616000 T    1382 GLP     0.6000 ****
4145 TO1  -100.822000  -60.000000   -3.953000 T    1382 GLP    -0.6000 ****
4146 HO1  -109.411000  -65.112000   -4.289000 H    1382 GLP     0.4000 ****
4147 TO2   -88.187000  -61.175000   -3.696000 T    1383 GLP     0.6000 ****
4148 TO1   -96.398000  -66.872000   -4.040000 T    1383 GLP    -0.6000 ****
4149 HO1  -104.610000  -72.568000   -4.385000 H    1383 GLP     0.4000 ****
4150 TO2   -83.712000  -67.164000   -3.777000 T    1384 GLP     0.6000 ****
4151 TO1   -91.507000  -73.419000   -4.128000 T    1384 GLP    -0.6000 ****
4152 HO1   -99.302000  -79.673000   -4.480000 H    1384 GLP     0.4000 ****
4153 TO2   -78.831000  -72.827000   -3.857000 T    1385 GLP     0.6000 ****
4154 TO1   -86.171000  -79.609000   -4.216000 T    1385 GLP    -0.6000 ****
4155 HO1   -93.512000  -86.390000   -4.575000 H    1385 GLP     0.4000 ****
4156 TO2   -73.567000  -78.137000   -3.937000 T    1386 GLP     0.6000 ****
4157 TO1   -80.418000  -85.413000   -4.304000 T    1386 GLP    -0.6000 ****
4158 HO1   -87.268000  -92.688000   -4.671000 H    1386 GLP     0.4000 ****
4159 TO2   -67.947000  -83.067000   -4.018000 T    1387 GLP     0.6000 ****
4160 TO1   -74.274000  -90.802000   -4.392000 T    1387 GLP    -0.6000 ****
4161 HO1   -80.601000  -98.536000   -4.766000 H    1387 GLP     0.4000 ****
4162 TO2   -61.997000  -87.593000   -4.098000 T    1388 GLP     0.6000 ****
4163 TO1   -67.770000  -95.750000   -4.480000 T    1388 GLP    -0.6000 ****
4164 HO1   -73.543000 -103.906000   -4.861000 H    1388 GLP     0.4000 ****
4165 TO2   -55.746000  -91.695000   -4.178000 T    1389 GLP     0.6000 ****
4166 TO1   -60.937000 -100.233000   -4.567000 T    1389 GLP    -0.6000 ****
4167 HO1   -66.128000 -108.771000   -4.957000 H    1389 GLP     0.4000 ****
4168 TO2   -49.225000  -95.351000   -4.259000 T    1390 GLP     0.6000 ****
4169 TO1   -53.808000 -104.229000   -4.655000 T    1390 GLP    -0.6000 ****
4170 HO1   -58.392000 -113.108000   -5.052000 H    1390 GLP     0.4000 ****
4171 TO2   -42.465000  -98.544000   -4.339000 T    1391 GLP     0.6000 ****
4172 TO1   -46.419000 -107.720000   -4.743000 T    1391 GLP    -0.6000 ****
4173 HO1   -50.373000 -116.896000   -5.147000 H    1391 GLP     0.4000 ****
4174 TO2   -35.499000 -101.258000   -4.419000 T    1392 GLP     0.6000 ****
4175 TO1   -38.804000 -110.687000   -4.831000 T    1392 GLP    -0.6000 ****
4176 HO1   -42.110000 -120.116000   -5.242000 H    1392 GLP     0.4000 ****
4177 TO2   -28.361000 -103.481000   -4.500000 T    1393 GLP     0.6000 ****
4178 TO1   -31.002000 -113.117000   -4.919000 T    1393 GLP    -0.6000 ****
4179 HO1   -33.643000 -122.753000   -5.338000 H    1393 GLP     0.4000 ****
4180 TO2   -21.085000 -105.202000   -4.580000 T    1394 GLP     0.6000 ****
4181 TO1   -23.049000 -114.998000   -5.007000 T    1394 GLP    -0.6000 ****
4182 HO1   -25.012000 -124.794000   -5.433000 H    1394 GLP     0.4000 ****
4183 TO2   -13.708000 -106.411000   -4.660000 T    1395 GLP     0.6000 ****
4184 TO1   -14.984000 -116.320000   -5.094000 T    1395 GLP    -0.6000 ****
4185 HO1   -16.260000 -126.229000   -5.528000 H    1395 GLP     0.4000 ****
4186 TO2    -6.264000 -107.104000   -4.741000 T    1396 GLP     0.6000 ****
4187 TO1    -6.847000 -117.077000   -5.182000 T    1396 GLP    -0.6000 ****
4188 HO1    -7.430000 -127.050000   -5.624000 H    1396 GLP     0.4000 ****
4189 TO2     1.211000 -107.277000   -4.821000 T    1397 GLP     0.6000 ****
4190 TO1     1.323000 -117.266000   -5.270000 T    1397 GLP    -0.6000 ****
4191 HO1     1.436000 -127.255000   -5.719000 H    1397 GLP     0.4000 ****
4192 TO2     8.679000 -106.928000   -4.902000 T    1398 GLP     0.6000 ****
4193 TO1     9.487000 -116.885000   -5.358000 T    1398 GLP    -0.6000 ****
4194 HO1    10.295000 -126.842000   -5.814000 H    1398 GLP     0.4000 ****
4195 TO2    16.104000 -106.060000   -4.982000 T    1399 GLP     0.6000 ****
4196 TO1    17.604000 -115.936000   -5.446000 T    1399 GLP    -0.6000 ****
4197 HO1    19.103000 -125.812000   -5.910000 H    1399 GLP     0.4000 ****
4198 TO2    23.451000 -104.677000   -5.062000 T    1400 GLP     0.6000 ****
4199 TO1    25.635000 -114.425000   -5.534000 T    1400 GLP    -0.6000 ****
4200 HO1    27.819000 -124.172000   -6.005000 H    1400 GLP     0.4000 ****
4201 TO2    30.684000 -102.786000   -5.143000 T    1401 GLP     0.6000 ****
4202 TO1    33.542000 -112.357000   -5.621000 T    1401 GLP    -0.6000 ****
4203 HO1    36.399000 -121.928000   -6.100000 H    1401 GLP     0.4000 ****
4204 TO2    37.768000 -100.396000   -5.223000 T    1402 GLP     0.6000 ****
4205 TO1    41.285000 -109.744000   -5.709000 T    1402 GLP    -0.6000 ****
4206 HO1    44.802000 -119.093000   -6.196000 H    1402 GLP     0.4000 ****
4207 TO2    44.668000  -97.517000   -5.303000 T    1403 GLP     0.6000 ****
4208 TO1    48.827000 -106.598000   -5.797000 T    1403 GLP    -0.6000 ****
4209 HO1    52.986000 -115.678000   -6.291000 H    1403 GLP     0.4000 ****
4210 TO2    51.350000  -94.165000   -5.384000 T    1404 GLP     0.6000 ****
4211 TO1    56.132000 -102.934000   -5.885000 T    1404 GLP    -0.6000 ****
4212 HO1    60.914000 -111.702000   -6.386000 H    1404 GLP     0.4000 ****
4213 TO2    57.783000  -90.356000   -5.464000 T    1405 GLP     0.6000 ****
4214 TO1    63.164000  -98.770000   -5.973000 T    1405 GLP    -0.6000 ****
4215 HO1    68.544000 -107.183000   -6.482000 H    1405 GLP     0.4000 ****
4216 TO2    63.935000  -86.108000   -5.544000 T    1406 GLP     0.6000 ****
4217 TO1    69.888000  -94.126000   -6.061000 T    1406 GLP    -0.6000 ****
4218 HO1    75.842000 -102.144000   -6.577000 H    1406 GLP     0.4000 ****
4219 TO2    69.776000  -81.441000   -5.625000 T    1407 GLP     0.6000 ****
4220 TO1    76.273000  -89.025000   -6.148000 T    1407 GLP    -0.6000 ****
4221 HO1    82.771000  -96.608000   -6.672000 H    1407 GLP     0.4000 ****
4222 TO2    75.277000  -76.379000   -5.705000 T    1408 GLP     0.6000 ****
4223 TO1    82.287000  -83.491000   -6.236000 T    1408 GLP    -0.6000 ****
4224 HO1    89.297000  -90.603000   -6.768000 H    1408 GLP     0.4000 ****
4225 TO2    80.413000  -70.946000   -5.785000 T    1409 GLP     0.6000 ****
4226 TO1    87.901000  -77.552000   -6.324000 T    1409 GLP    -0.6000 ****
4227 HO1    95.388000  -84.158000   -6.863000 H    1409 GLP     0.4000 ****
4228 TO2    85.157000  -65.168000   -5.866000 T    1410 GLP     0.6000 ****
4229 TO1    93.087000  -71.236000   -6.412000 T    1410 GLP    -0.6000 ****
4230 HO1   101.016000  -77.304000   -6.958000 H    1410 GLP     0.4000 ****
4231 TO2    89.487000  -59.073000   -5.946000 T    1411 GLP     0.6000 ****
4232 TO1    97.820000  -64.574000   -6.500000 T    1411 GLP    -0.6000 ****
4233 HO1   106.153000  -70.075000   -7.053000 H    1411 GLP     0.4000 ****
4234 TO2    93.382000  -52.692000   -6.026000 T    1412 GLP     0.6000 ****
4235 TO1   102.078000  -57.598000   -6.588000 T    1412 GLP    -0.6000 ****
4236 HO1   110.773000  -62.505000   -7.149000 H    1412 GLP     0.4000 ****
4237 TO2    96.823000  -46.055000   -6.107000 T    1413 GLP     0.6000 ****
4238 TO1   105.839000  -50.343000   -6.675000 T    1413 GLP    -0.6000 ****
4239 HO1   114.855000  -54.631000   -7.244000 H    1413 GLP     0.4000 ****
4240 TO2    99.793000  -39.194000   -6.187000 T    1414 GLP     0.6000 ****
4241 TO1   109.085000  -42.843000   -6.763000 T    1414 GLP    -0.6000 ****
4242 HO1   118.377000  -46.493000   -7.339000 H    1414 GLP     0.4000 ****
4243 TO2   102.277000  -32.142000   -6.268000 T    1415 GLP     0.6000 ****
4244 TO1   111.801000  -35.135000   -6.851000 T    1415 GLP    -0.6000 ****
4245 HO1   121.324000  -38.128000   -7.435000 H    1415 GLP     0.4000 ****
4246 TO2   104.264000  -24.935000   -6.348000 T    1416 GLP     0.6000 ****
4247 TO1   113.972000  -27.257000   -6.939000 T    1416 GLP    -0.6000 ****
4248 HO1   123.681000  -29.579000   -7.530000 H    1416 GLP     0.4000 ****
4249 TO2   105.743000  -17.607000   -6.428000 T    1417 GLP     0.6000 ****
4250 TO1   115.590000  -19.246000   -7.027000 T    1417 GLP    -0.6000 ****
4251 HO1   125.436000  -20.886000   -7.625000 H    1417 GLP     0.4000 ****
4252 TO2   106.708000  -10.193000   -6.509000 T    1418 GLP     0.6000 ****
4253 TO1   116.645000  -11.142000   -7.115000 T    1418 GLP    -0.6000 ****
4254 HO1   126.581000  -12.092000   -7.721000 H    1418 GLP     0.4000 ****
4255 TO2   107.155000   -2.730000   -6.589000 T    1419 GLP     0.6000 ****
4256 TO1   117.132000   -2.985000   -7.202000 T    1419 GLP    -0.6000 ****
4257 HO1   127.110000   -3.239000   -7.816000 H    1419 GLP     0.4000 ****
4258 TO2   107.079000    4.745000   -6.669000 T    1420 GLP     0.6000 ****
4259 TO1   117.050000    5.187000   -7.290000 T    1420 GLP    -0.6000 ****
4260 HO1   127.021000    5.629000   -7.911000 H    1420 GLP     0.4000 ****
4261 TO2   106.483000   12.198000   -6.750000 T    1421 GLP     0.6000 ****
4262 TO1   116.398000   13.333000   -7.378000 T    1421 GLP    -0.6000 ****
4263 HO1   126.314000   14.469000   -8.007000 H    1421 GLP     0.4000 ****
4264 TO2   105.369000   19.590000   -6.830000 T    1422 GLP     0.6000 ****
4265 TO1   115.180000   21.414000   -7.466000 T    1422 GLP    -0.6000 ****
4266 HO1   124.992000   23.239000   -8.102000 H    1422 GLP     0.4000 ****
4267 TO2   103.742000   26.887000   -6.910000 T    1423 GLP     0.6000 ****
4268 TO1   113.402000   29.391000   -7.554000 T    1423 GLP    -0.6000 ****
4269 HO1   123.062000   31.894000   -8.197000 H    1423 GLP     0.4000 ****
4270 TO2   101.610000   34.053000   -6.991000 T    1424 GLP     0.6000 ****
4271 TO1   111.071000   37.224000   -7.642000 T    1424 GLP    -0.6000 ****
4272 HO1   120.533000   40.394000   -8.293000 H    1424 GLP     0.4000 ****
4273 TO2    98.983000   41.052000   -7.071000 T    1425 GLP     0.6000 ****
4274 TO1   108.200000   44.875000   -7.729000 T    1425 GLP    -0.6000 ****
4275 HO1   117.417000   48.698000   -8.388000 H    1425 GLP     0.4000 ****
4276 TO2    95.875000   47.852000   -7.151000 T    1426 GLP     0.6000 ****
4277 TO1   104.803000   52.308000   -7.817000 T    1426 GLP    -0.6000 ****
4278 HO1   113.730000   56.763000   -8.483000 H    1426 GLP     0.4000 ****
4279 TO2    92.300000   54.418000   -7.232000 T    1427 GLP     0.6000 ****
4280 TO1   100.895000   59.485000   -7.905000 T    1427 GLP    -0.6000 ****
4281 HO1   109.490000   64.552000   -8.579000 H    1427 GLP     0.4000 ****
4282 TO2    88.277000   60.719000   -7.312000 T    1428 GLP     0.6000 ****
4283 TO1    96.497000   66.373000   -7.993000 T    1428 GLP    -0.6000 ****
4284 HO1   104.717000   72.026000   -8.674000 H    1428 GLP     0.4000 ****
4285 TO2    83.823000   66.723000   -7.392000 T    1429 GLP     0.6000 ****
4286 TO1    91.628000   72.937000   -8.081000 T    1429 GLP    -0.6000 ****
4287 HO1    99.434000   79.150000   -8.769000 H    1429 GLP     0.4000 ****
4288 TO2    78.962000   72.403000   -7.473000 T    1430 GLP     0.6000 ****
4289 TO1    86.314000   79.145000   -8.169000 T    1430 GLP    -0.6000 ****
4290 HO1    93.667000   85.887000   -8.865000 H    1430 GLP     0.4000 ****
4291 TO2    73.716000   77.730000   -7.553000 T    1431 GLP     0.6000 ****
4292 TO1    80.580000   84.968000   -8.257000 T    1431 GLP    -0.6000 ****
4293 HO1    87.444000   92.206000   -8.960000 H    1431 GLP     0.4000 ****
4294 TO2    68.111000   82.677000   -7.634000 T    1432 GLP     0.6000 ****
4295 TO1    74.453000   90.376000   -8.344000 T    1432 GLP    -0.6000 ****
4296 HO1    80.796000   98.075000   -9.055000 H    1432 GLP     0.4000 ****
4297 TO2    62.175000   87.222000   -7.714000 T    1433 GLP     0.6000 ****
4298 TO1    67.965000   95.344000   -8.432000 T    1433 GLP    -0.6000 ****
4299 HO1    73.754000  103.466000   -9.150000 H    1433 GLP     0.4000 ****
4300 TO2    55.936000   91.342000   -7.794000 T    1434 GLP     0.6000 ****
4301 TO1    61.145000   99.847000   -8.520000 T    1434 GLP    -0.6000 ****
4302 HO1    66.354000  108.353000   -9.246000 H    1434 GLP     0.4000 ****
4303 TO2    49.426000   95.016000   -7.875000 T    1435 GLP     0.6000 ****
4304 TO1    54.028000  103.864000   -8.608000 T    1435 GLP    -0.6000 ****
4305 HO1    58.630000  112.711000   -9.341000 H    1435 GLP     0.4000 ****
4306 TO2    42.674000   98.227000   -7.955000 T    1436 GLP     0.6000 ****
4307 TO1    46.648000  107.374000   -8.696000 T    1436 GLP    -0.6000 ****
4308 HO1    50.622000  116.521000   -9.436000 H    1436 GLP     0.4000 ****
4309 TO2    35.715000  100.959000   -8.035000 T    1437 GLP     0.6000 ****
4310 TO1    39.041000  110.361000   -8.784000 T    1437 GLP    -0.6000 ****
4311 HO1    42.367000  119.762000   -9.532000 H    1437 GLP     0.4000 ****
4312 TO2    28.583000  103.199000   -8.116000 T    1438 GLP     0.6000 ****
4313 TO1    31.244000  112.809000   -8.871000 T    1438 GLP    -0.6000 ****
4314 HO1    33.906000  122.419000   -9.627000 H    1438 GLP     0.4000 ****
4315 TO2    21.311000  104.936000   -8.196000 T    1439 GLP     0.6000 ****
4316 TO1    23.296000  114.708000   -8.959000 T    1439 GLP    -0.6000 ****
4317 HO1    25.280000  124.479000   -9.722000 H    1439 GLP     0.4000 ****
4318 TO2    13.936000  106.161000   -8.276000 T    1440 GLP     0.6000 ****
4319 TO1    15.234000  116.047000   -9.047000 T    1440 GLP    -0.6000 ****
4320 HO1    16.532000  125.932000   -9.818000 H    1440 GLP     0.4000 ****
4321 TO2     6.494000  106.869000   -8.357000 T    1441 GLP     0.6000 ****
4322 TO1     7.098000  116.820000   -9.135000 T    1441 GLP    -0.6000 ****
4323 HO1     7.703000  126.772000   -9.913000 H    1441 GLP     0.4000 ****
4324 TO2    -0.980000  107.055000   -8.437000 T    1442 GLP     0.6000 ****
4325 TO1    -1.071000  117.024000   -9.223000 T    1442 GLP    -0.6000 ****
4326 HO1    -1.162000  126.993000  -10.008000 H    1442 GLP     0.4000 ****
4327 TO2    -8.448000  106.719000   -8.517000 T    1443 GLP     0.6000 ****
4328 TO1    -9.235000  116.657000   -9.311000 T    1443 GLP    -0.6000 ****
4329 HO1   -10.022000  126.594000  -10.104000 H    1443 GLP     0.4000 ****
4330 TO2   -15.875000  105.863000   -8.598000 T    1444 GLP     0.6000 ****
4331 TO1   -17.354000  115.721000   -9.398000 T    1444 GLP    -0.6000 ****
4332 HO1   -18.832000  125.579000  -10.199000 H    1444 GLP     0.4000 ****
4333 TO2   -23.224000  104.491000   -8.678000 T    1445 GLP     0.6000 ****
4334 TO1   -25.387000  114.220000   -9.486000 T    1445 GLP    -0.6000 ****
4335 HO1   -27.549000  123.950000  -10.294000 H    1445 GLP     0.4000 ****
4336 TO2   -30.460000  102.608000   -8.758000 T    1446 GLP     0.6000 ****
4337 TO1   -33.296000  112.163000   -9.574000 T    1446 GLP    -0.6000 ****
4338 HO1   -36.132000  121.718000  -10.390000 H    1446 GLP     0.4000 ****
4339 TO2   -37.546000  100.226000   -8.839000 T    1447 GLP     0.6000 ****
4340 TO1   -41.042000  109.558000   -9.662000 T    1447 GLP    -0.6000 ****
4341 HO1   -44.538000  118.891000  -10.485000 H    1447 GLP     0.4000 ****
4342 TO2   -44.448000   97.354000   -8.919000 T    1448 GLP     0.6000 ****
4343 TO1   -48.587000  106.419000   -9.750000 T    1448 GLP    -0.6000 ****
4344 HO1   -52.726000  115.484000  -10.580000 H    1448 GLP     0.4000 ****
4345 TO2   -51.133000   94.007000   -9.000000 T    1449 GLP     0.6000 ****
4346 TO1   -55.895000  102.761000   -9.838000 T    1449 GLP    -0.6000 ****
4347 HO1   -60.656000  111.515000  -10.676000 H    1449 GLP     0.4000 ****
4348 TO2   -57.568000   90.202000   -9.080000 T    1450 GLP     0.6000 ****
4349 TO1   -62.929000   98.601000   -9.925000 T    1450 GLP    -0.6000 ****
4350 HO1   -68.290000  107.001000  -10.771000 H    1450 GLP     0.4000 ****
4351 TO2   -63.722000   85.957000   -9.160000 T    1451 GLP     0.6000 ****
4352 TO1   -69.656000   93.961000  -10.013000 T    1451 GLP    -0.6000 ****
4353 HO1   -75.589000  101.965000  -10.866000 H    1451 GLP     0.4000 ****
4354 TO2   -69.564000   81.292000   -9.241000 T    1452 GLP     0.6000 ****
4355 TO1   -76.042000   88.862000  -10.101000 T    1452 GLP    -0.6000 ****
4356 HO1   -82.520000   96.431000  -10.961000 H    1452 GLP     0.4000 ****
4357 TO2   -75.067000   76.231000   -9.321000 T    1453 GLP     0.6000 ****
4358 TO1   -82.057000   83.329000  -10.189000 T    1453 GLP    -0.6000 ****
4359 HO1   -89.047000   90.427000  -11.057000 H    1453 GLP     0.4000 ****
4360 TO2   -80.202000   70.797000   -9.401000 T    1454 GLP     0.6000 ****
4361 TO1   -87.670000   77.390000  -10.277000 T    1454 GLP    -0.6000 ****
4362 HO1   -95.138000   83.982000  -11.152000 H    1454 GLP     0.4000 ****
4363 TO2   -84.945000   65.019000   -9.482000 T    1455 GLP     0.6000 ****
4364 TO1   -92.855000   71.073000  -10.365000 T    1455 GLP    -0.6000 ****
4365 HO1  -100.765000   77.127000  -11.247000 H    1455 GLP     0.4000 ****
4366 TO2   -89.273000   58.923000   -9.562000 T    1456 GLP     0.6000 ****
4367 TO1   -97.586000   64.409000  -10.452000 T    1456 GLP    -0.6000 ****
4368 HO1  -105.899000   69.896000  -11.343000 H    1456 GLP     0.4000 ****
4369 TO2   -93.164000   52.539000   -9.642000 T    1457 GLP     0.6000 ****
4370 TO1  -101.840000   57.432000  -10.540000 T    1457 GLP    -0.6000 ****
4371 HO1  -110.515000   62.324000  -11.438000 H    1457 GLP     0.4000 ****
4372 TO2   -96.600000   45.900000   -9.723000 T    1458 GLP     0.6000 ****
4373 TO1  -105.596000   50.174000  -10.628000 T    1458 GLP    -0.6000 ****
4374 HO1  -114.591000   54.448000  -11.533000 H    1458 GLP     0.4000 ****
4375 TO2   -99.564000   39.036000   -9.803000 T    1459 GLP     0.6000 ****
4376 TO1  -108.835000   42.671000  -10.716000 T    1459 GLP    -0.6000 ****
4377 HO1  -118.107000   46.306000  -11.629000 H    1459 GLP     0.4000 ****
4378 TO2  -102.041000   31.982000   -9.883000 T    1460 GLP     0.6000 ****
4379 TO1  -111.543000   34.961000  -10.804000 T    1460 GLP    -0.6000 ****
4380 HO1  -121.045000   37.939000  -11.724000 H    1460 GLP     0.4000 ****
4381 TO2  -104.019000   24.773000   -9.964000 T    1461 GLP     0.6000 ****
4382 TO1  -113.705000   27.080000  -10.892000 T    1461 GLP    -0.6000 ****
4383 HO1  -123.391000   29.386000  -11.819000 H    1461 GLP     0.4000 ****
4384 TO2  -105.489000   17.443000  -10.044000 T    1462 GLP     0.6000 ****
4385 TO1  -115.311000   19.067000  -10.979000 T    1462 GLP    -0.6000 ****
4386 HO1  -125.134000   20.691000  -11.915000 H    1462 GLP     0.4000 ****
4387 TO2  -106.442000   10.028000  -10.124000 T    1463 GLP     0.6000 ****
4388 TO1  -116.354000   10.962000  -11.067000 T    1463 GLP    -0.6000 ****
4389 HO1  -126.265000   11.895000  -12.010000 H    1463 GLP     0.4000 ****
4390 TO2  -106.875000    2.564000  -10.205000 T    1464 GLP     0.6000 ****
4391 TO1  -116.827000    2.803000  -11.155000 T    1464 GLP    -0.6000 ****
4392 HO1  -126.779000    3.042000  -12.105000 H    1464 GLP     0.4000 ****
4393 TO2  -106.785000   -4.911000  -10.285000 T    1465 GLP     0.6000 ****
4394 TO1  -116.729000   -5.368000  -11.243000 T    1465 GLP    -0.6000 ****
4395 HO1  -126.672000   -5.826000  -12.201000 H    1465 GLP     0.4000 ****
4396 TO2  -106.173000  -12.362000  -10.366000 T    1466 GLP     0.6000 ****
4397 TO1  -116.060000  -13.513000  -11.331000 T    1466 GLP    -0.6000 ****
4398 HO1  -125.946000  -14.664000  -12.296000 H    1466 GLP     0.4000 ****
4399 TO2  -105.041000  -19.752000  -10.446000 T    1467 GLP     0.6000 ****
4400 TO1  -114.823000  -21.591000  -11.419000 T    1467 GLP    -0.6000 ****
4401 HO1  -124.604000  -23.430000  -12.391000 H    1467 GLP     0.4000 ****
4402 TO2  -103.396000  -27.045000  -10.526000 T    1468 GLP     0.6000 ****
4403 TO1  -113.024000  -29.563000  -11.506000 T    1468 GLP    -0.6000 ****
4404 HO1  -122.652000  -32.081000  -12.487000 H    1468 GLP     0.4000 ****
4405 TO2  -101.245000  -34.204000  -10.607000 T    1469 GLP     0.6000 ****
4406 TO1  -110.672000  -37.389000  -11.594000 T    1469 GLP    -0.6000 ****
4407 HO1  -120.100000  -40.574000  -12.582000 H    1469 GLP     0.4000 ****
4408 TO2   -98.598000  -41.196000  -10.687000 T    1470 GLP     0.6000 ****
4409 TO1  -107.779000  -45.032000  -11.682000 T    1470 GLP    -0.6000 ****
4410 HO1  -116.961000  -48.868000  -12.677000 H    1470 GLP     0.4000 ****
4411 TO2   -95.469000  -47.986000  -10.767000 T    1471 GLP     0.6000 ****
4412 TO1  -104.359000  -52.454000  -11.770000 T    1471 GLP    -0.6000 ****
4413 HO1  -113.249000  -56.923000  -12.773000 H    1471 GLP     0.4000 ****
4414 TO2   -91.873000  -54.540000  -10.848000 T    1472 GLP     0.6000 ****
4415 TO1  -100.428000  -59.619000  -11.858000 T    1472 GLP    -0.6000 ****
4416 HO1  -108.983000  -64.697000  -12.868000 H    1472 GLP     0.4000 ****
4417 TO2   -87.827000  -60.827000  -10.928000 T    1473 GLP     0.6000 ****
4418 TO1   -96.006000  -66.491000  -11.946000 T    1473 GLP    -0.6000 ****
4419 HO1  -104.184000  -72.155000  -12.963000 H    1473 GLP     0.4000 ****
4420 TO2   -83.352000  -66.815000  -11.008000 T    1474 GLP     0.6000 ****
4421 TO1   -91.113000  -73.037000  -12.033000 T    1474 GLP    -0.6000 ****
4422 HO1   -98.875000  -79.258000  -13.058000 H    1474 GLP     0.4000 ****
4423 TO2   -78.468000  -72.476000  -11.089000 T    1475 GLP     0.6000 ****
4424 TO1   -85.775000  -79.224000  -12.121000 T    1475 GLP    -0.6000 ****
4425 HO1   -93.082000  -85.973000  -13.154000 H    1475 GLP     0.4000 ****
4426 TO2   -73.201000  -77.781000  -11.169000 T    1476 GLP     0.6000 ****
4427 TO1   -80.017000  -85.024000  -12.209000 T    1476 GLP    -0.6000 ****
4428 HO1   -86.833000  -92.266000  -13.249000 H    1476 GLP     0.4000 ****
4429 TO2   -67.575000  -82.704000  -11.249000 T    1477 GLP     0.6000 ****
4430 TO1   -73.868000  -90.406000  -12.297000 T    1477 GLP    -0.6000 ****
4431 HO1   -80.160000  -98.107000  -13.344000 H    1477 GLP     0.4000 ****
4432 TO2   -61.619000  -87.222000  -11.330000 T    1478 GLP     0.6000 ****
4433 TO1   -67.356000  -95.344000  -12.385000 T    1478 GLP    -0.6000 ****
4434 HO1   -73.094000 -103.466000  -13.440000 H    1478 GLP     0.4000 ****
4435 TO2   -55.361000  -91.312000  -11.410000 T    1479 GLP     0.6000 ****
4436 TO1   -60.516000  -99.815000  -12.473000 T    1479 GLP    -0.6000 ****
4437 HO1   -65.671000 -108.318000  -13.535000 H    1479 GLP     0.4000 ****
4438 TO2   -48.832000  -94.955000  -11.490000 T    1480 GLP     0.6000 ****
4439 TO1   -53.379000 -103.796000  -12.560000 T    1480 GLP    -0.6000 ****
4440 HO1   -57.926000 -112.638000  -13.630000 H    1480 GLP     0.4000 ****
4441 TO2   -42.064000  -98.131000  -11.571000 T    1481 GLP     0.6000 ****
4442 TO1   -45.981000 -107.269000  -12.648000 T    1481 GLP    -0.6000 ****
4443 HO1   -49.898000 -116.406000  -13.726000 H    1481 GLP     0.4000 ****
4444 TO2   -35.091000 -100.826000  -11.651000 T    1482 GLP     0.6000 ****
4445 TO1   -38.359000 -110.214000  -12.736000 T    1482 GLP    -0.6000 ****
4446 HO1   -41.626000 -119.603000  -13.821000 H    1482 GLP     0.4000 ****
4447 TO2   -27.946000 -103.026000  -11.732000 T    1483 GLP     0.6000 ****
4448 TO1   -30.548000 -112.619000  -12.824000 T    1483 GLP    -0.6000 ****
4449 HO1   -33.151000 -122.213000  -13.916000 H    1483 GLP     0.4000 ****
4450 TO2   -20.665000 -104.721000  -11.812000 T    1484 GLP     0.6000 ****
4451 TO1   -22.589000 -114.472000  -12.912000 T    1484 GLP    -0.6000 ****
4452 HO1   -24.513000 -124.223000  -14.012000 H    1484 GLP     0.4000 ****
4453 TO2   -13.283000 -105.901000  -11.892000 T    1485 GLP     0.6000 ****
4454 TO1   -14.520000 -115.763000  -13.000000 T    1485 GLP    -0.6000 ****
4455 HO1   -15.756000 -125.624000  -14.107000 H    1485 GLP     0.4000 ****
4456 TO2    -5.836000 -106.562000  -11.973000 T    1486 GLP     0.6000 ****
4457 TO1    -6.379000 -116.485000  -13.087000 T    1486 GLP    -0.6000 ****
4458 HO1    -6.923000 -126.408000  -14.202000 H    1486 GLP     0.4000 ****
4459 TO2     1.639000 -106.701000  -12.053000 T    1487 GLP     0.6000 ****
4460 TO1     1.791000 -116.636000  -13.175000 T    1487 GLP    -0.6000 ****
4461 HO1     1.944000 -126.572000  -14.298000 H    1487 GLP     0.4000 ****
4462 TO2     9.105000 -106.315000  -12.133000 T    1488 GLP     0.6000 ****
4463 TO1     9.952000 -116.215000  -13.263000 T    1488 GLP    -0.6000 ****
4464 HO1    10.800000 -126.114000  -14.393000 H    1488 GLP     0.4000 ****
4465 TO2    16.525000 -105.407000  -12.214000 T    1489 GLP     0.6000 ****
4466 TO1    18.064000 -115.223000  -13.351000 T    1489 GLP    -0.6000 ****
4467 HO1    19.603000 -125.038000  -14.488000 H    1489 GLP     0.4000 ****
4468 TO2    23.864000 -103.982000  -12.294000 T    1490 GLP     0.6000 ****
4469 TO1    26.086000 -113.665000  -13.439000 T    1490 GLP    -0.6000 ****
4470 HO1    28.309000 -123.347000  -14.584000 H    1490 GLP     0.4000 ****
4471 TO2    31.085000 -102.047000  -12.374000 T    1491 GLP     0.6000 ****
4472 TO1    33.980000 -111.549000  -13.527000 T    1491 GLP    -0.6000 ****
4473 HO1    36.874000 -121.051000  -14.679000 H    1491 GLP     0.4000 ****
4474 TO2    38.153000  -99.610000  -12.455000 T    1492 GLP     0.6000 ****
4475 TO1    41.706000 -108.886000  -13.614000 T    1492 GLP    -0.6000 ****
4476 HO1    45.258000 -118.161000  -14.774000 H    1492 GLP     0.4000 ****
4477 TO2    45.033000  -96.685000  -12.535000 T    1493 GLP     0.6000 ****
4478 TO1    49.226000 -105.688000  -13.702000 T    1493 GLP    -0.6000 ****
4479 HO1    53.419000 -114.691000  -14.870000 H    1493 GLP     0.4000 ****
4480 TO2    51.690000  -93.284000  -12.615000 T    1494 GLP     0.6000 ****
4481 TO1    56.504000 -101.970000  -13.790000 T    1494 GLP    -0.6000 ****
4482 HO1    61.317000 -110.657000  -14.965000 H    1494 GLP     0.4000 ****
4483 TO2    58.094000  -89.425000  -12.696000 T    1495 GLP     0.6000 ****
4484 TO1    63.503000  -97.753000  -13.878000 T    1495 GLP    -0.6000 ****
4485 HO1    68.913000 -106.080000  -15.060000 H    1495 GLP     0.4000 ****
4486 TO2    64.211000  -85.128000  -12.776000 T    1496 GLP     0.6000 ****
4487 TO1    70.190000  -93.055000  -13.966000 T    1496 GLP    -0.6000 ****
4488 HO1    76.169000 -100.981000  -15.155000 H    1496 GLP     0.4000 ****
4489 TO2    70.012000  -80.412000  -12.856000 T    1497 GLP     0.6000 ****
4490 TO1    76.531000  -87.900000  -14.054000 T    1497 GLP    -0.6000 ****
4491 HO1    83.050000  -95.387000  -15.251000 H    1497 GLP     0.4000 ****
4492 TO2    75.468000  -75.301000  -12.937000 T    1498 GLP     0.6000 ****
4493 TO1    82.495000  -82.313000  -14.141000 T    1498 GLP    -0.6000 ****
4494 HO1    89.522000  -89.325000  -15.346000 H    1498 GLP     0.4000 ****
4495 TO2    80.552000  -69.820000  -13.017000 T    1499 GLP     0.6000 ****
4496 TO1    88.053000  -76.322000  -14.229000 T    1499 GLP    -0.6000 ****
4497 HO1    95.554000  -82.823000  -15.441000 H    1499 GLP     0.4000 ****
4498 TO2    85.240000  -63.997000  -13.098000 T    1500 GLP     0.6000 ****
4499 TO1    93.177000  -69.956000  -14.317000 T    1500 GLP    -0.6000 ****
4500 HO1   101.114000  -75.915000  -15.537000 H    1500 GLP     0.4000 ****
4501 TO2    89.508000  -57.859000  -13.178000 T    1501 GLP     0.6000 ****
4502 TO1    97.843000  -63.246000  -14.405000 T    1501 GLP    -0.6000 ****
4503 HO1   106.177000  -68.634000  -15.632000 H    1501 GLP     0.4000 ****
4504 TO2    93.335000  -51.437000  -13.258000 T    1502 GLP     0.6000 ****
4505 TO1   102.026000  -56.226000  -14.493000 T    1502 GLP    -0.6000 ****
4506 HO1   110.717000  -61.016000  -15.727000 H    1502 GLP     0.4000 ****
4507 TO2    96.703000  -44.762000  -13.339000 T    1503 GLP     0.6000 ****
4508 TO1   105.707000  -48.930000  -14.581000 T    1503 GLP    -0.6000 ****
4509 HO1   114.712000  -53.099000  -15.823000 H    1503 GLP     0.4000 ****
4510 TO2    99.594000  -37.868000  -13.419000 T    1504 GLP     0.6000 ****
4511 TO1   108.868000  -41.394000  -14.668000 T    1504 GLP    -0.6000 ****
4512 HO1   118.141000  -44.920000  -15.918000 H    1504 GLP     0.4000 ****
4513 TO2   101.994000  -30.788000  -13.499000 T    1505 GLP     0.6000 ****
4514 TO1   111.492000  -33.655000  -14.756000 T    1505 GLP    -0.6000 ****
4515 HO1   120.989000  -36.522000  -16.013000 H    1505 GLP     0.4000 ****
4516 TO2   103.892000  -23.557000  -13.580000 T    1506 GLP     0.6000 ****
4517 TO1   113.567000  -25.751000  -14.844000 T    1506 GLP    -0.6000 ****
4518 HO1   123.241000  -27.944000  -16.109000 H    1506 GLP     0.4000 ****
4519 TO2   105.279000  -16.211000  -13.660000 T    1507 GLP     0.6000 ****
4520 TO1   115.082000  -17.720000  -14.932000 T    1507 GLP    -0.6000 ****
4521 HO1   124.885000  -19.230000  -16.204000 H    1507 GLP     0.4000 ****
4522 TO2   106.146000   -8.785000  -13.740000 T    1508 GLP     0.6000 ****
4523 TO1   116.030000   -9.604000  -15.020000 T    1508 GLP    -0.6000 ****
4524 HO1   125.914000  -10.422000  -16.299000 H    1508 GLP     0.4000 ****
4525 TO2   106.490000   -1.317000  -13.821000 T    1509 GLP     0.6000 ****
4526 TO1   116.407000   -1.440000  -15.108000 T    1509 GLP    -0.6000 ****
4527 HO1   126.323000   -1.563000  -16.395000 H    1509 GLP     0.4000 ****
4528 TO2   106.310000    6.156000  -13.901000 T    1510 GLP     0.6000 ****
4529 TO1   116.209000    6.729000  -15.195000 T    1510 GLP    -0.6000 ****
4530 HO1   126.109000    7.303000  -16.490000 H    1510 GLP     0.4000 ****
4531 TO2   105.606000   13.599000  -13.981000 T    1511 GLP     0.6000 ****
4532 TO1   115.439000   14.865000  -15.283000 T    1511 GLP    -0.6000 ****
4533 HO1   125.273000   16.131000  -16.585000 H    1511 GLP     0.4000 ****
4534 TO2   104.381000   20.974000  -14.062000 T    1512 GLP     0.6000 ****
4535 TO1   114.100000   22.927000  -15.371000 T    1512 GLP    -0.6000 ****
4536 HO1   123.820000   24.880000  -16.681000 H    1512 GLP     0.4000 ****
4537 TO2   102.641000   28.244000  -14.142000 T    1513 GLP     0.6000 ****
4538 TO1   112.199000   30.874000  -15.459000 T    1513 GLP    -0.6000 ****
4539 HO1   121.757000   33.505000  -16.776000 H    1513 GLP     0.4000 ****
4540 TO2   100.396000   35.375000  -14.222000 T    1514 GLP     0.6000 ****
4541 TO1   109.744000   38.669000  -15.547000 T    1514 GLP    -0.6000 ****
4542 HO1   119.093000   41.963000  -16.871000 H    1514 GLP     0.4000 ****
4543 TO2    97.655000   42.331000  -14.303000 T    1515 GLP     0.6000 ****
4544 TO1   106.748000   46.272000  -15.635000 T    1515 GLP    -0.6000 ****
4545 HO1   115.842000   50.214000  -16.966000 H    1515 GLP     0.4000 ****
4546 TO2    94.433000   49.076000  -14.383000 T    1516 GLP     0.6000 ****
4547 TO1   103.226000   53.646000  -15.722000 T    1516 GLP    -0.6000 ****
4548 HO1   112.020000   58.216000  -17.062000 H    1516 GLP     0.4000 ****
4549 TO2    90.745000   55.579000  -14.464000 T    1517 GLP     0.6000 ****
4550 TO1    99.195000   60.755000  -15.810000 T    1517 GLP    -0.6000 ****
4551 HO1   107.645000   65.930000  -17.157000 H    1517 GLP     0.4000 ****
4552 TO2    86.610000   61.807000  -14.544000 T    1518 GLP     0.6000 ****
4553 TO1    94.675000   67.563000  -15.898000 T    1518 GLP    -0.6000 ****
4554 HO1   102.740000   73.318000  -17.252000 H    1518 GLP     0.4000 ****
4555 TO2    82.047000   67.730000  -14.624000 T    1519 GLP     0.6000 ****
4556 TO1    89.688000   74.036000  -15.986000 T    1519 GLP    -0.6000 ****
4557 HO1    97.328000   80.343000  -17.348000 H    1519 GLP     0.4000 ****
4558 TO2    77.080000   73.317000  -14.705000 T    1520 GLP     0.6000 ****
4559 TO1    84.258000   80.144000  -16.074000 T    1520 GLP    -0.6000 ****
4560 HO1    91.435000   86.971000  -17.443000 H    1520 GLP     0.4000 ****
4561 TO2    71.733000   78.541000  -14.785000 T    1521 GLP     0.6000 ****
4562 TO1    78.413000   85.855000  -16.162000 T    1521 GLP    -0.6000 ****
4563 HO1    85.092000   93.168000  -17.538000 H    1521 GLP     0.4000 ****
4564 TO2    66.032000   83.377000  -14.865000 T    1522 GLP     0.6000 ****
4565 TO1    72.181000   91.141000  -16.249000 T    1522 GLP    -0.6000 ****
4566 HO1    78.329000   98.905000  -17.634000 H    1522 GLP     0.4000 ****
4567 TO2    60.005000   87.801000  -14.946000 T    1523 GLP     0.6000 ****
4568 TO1    65.593000   95.976000  -16.337000 T    1523 GLP    -0.6000 ****
4569 HO1    71.180000  104.152000  -17.729000 H    1523 GLP     0.4000 ****
4570 TO2    53.683000   91.790000  -15.026000 T    1524 GLP     0.6000 ****
4571 TO1    58.681000  100.337000  -16.425000 T    1524 GLP    -0.6000 ****
4572 HO1    63.680000  108.884000  -17.824000 H    1524 GLP     0.4000 ****
4573 TO2    47.095000   95.325000  -15.106000 T    1525 GLP     0.6000 ****
4574 TO1    51.481000  104.201000  -16.513000 T    1525 GLP    -0.6000 ****
4575 HO1    55.866000  113.077000  -17.920000 H    1525 GLP     0.4000 ****
4576 TO2    40.276000   98.388000  -15.187000 T    1526 GLP     0.6000 ****
4577 TO1    44.026000  107.550000  -16.601000 T    1526 GLP    -0.6000 ****
4578 HO1    47.777000  116.711000  -18.015000 H    1526 GLP     0.4000 ****
4579 TO2    33.258000  100.964000  -15.267000 T    1527 GLP     0.6000 ****
4580 TO1    36.355000  110.366000  -16.689000 T    1527 GLP    -0.6000 ****
4581 HO1    39.452000  119.767000  -18.110000 H    1527 GLP     0.4000 ****
4582 TO2    26.076000  103.041000  -15.347000 T    1528 GLP     0.6000 ****
4583 TO1    28.504000  112.636000  -16.777000 T    1528 GLP    -0.6000 ****
4584 HO1    30.933000  122.231000  -18.206000 H    1528 GLP     0.4000 ****
4585 TO2    18.766000  104.608000  -15.428000 T    1529 GLP     0.6000 ****
4586 TO1    20.514000  114.348000  -16.864000 T    1529 GLP    -0.6000 ****
4587 HO1    22.261000  124.089000  -18.301000 H    1529 GLP     0.4000 ****
4588 TO2    11.365000  105.657000  -15.508000 T    1530 GLP     0.6000 ****
4589 TO1    12.423000  115.495000  -16.952000 T    1530 GLP    -0.6000 ****
4590 HO1    13.481000  125.333000  -18.396000 H    1530 GLP     0.4000 ****
4591 TO2     3.907000  106.182000  -15.588000 T    1531 GLP     0.6000 ****
4592 TO1     4.271000  116.070000  -17.040000 T    1531 GLP    -0.6000 ****
4593 HO1     4.635000  125.957000  -18.492000 H    1531 GLP     0.4000 ****
4594 TO2    -3.569000  106.182000  -15.669000 T    1532 GLP     0.6000 ****
4595 TO1    -3.901000  116.070000  -17.128000 T    1532 GLP    -0.6000 ****
4596 HO1    -4.233000  125.957000  -18.587000 H    1532 GLP     0.4000 ****
4597 TO2   -11.026000  105.657000  -15.749000 T    1533 GLP     0.6000 ****
4598 TO1   -12.053000  115.495000  -17.216000 T    1533 GLP    -0.6000 ****
4599 HO1   -13.079000  125.334000  -18.682000 H    1533 GLP     0.4000 ****
4600 TO2   -18.428000  104.608000  -15.830000 T    1534 GLP     0.6000 ****
4601 TO1   -20.144000  114.349000  -17.304000 T    1534 GLP    -0.6000 ****
4602 HO1   -21.860000  124.089000  -18.778000 H    1534 GLP     0.4000 ****
4603 TO2   -25.738000  103.041000  -15.910000 T    1535 GLP     0.6000 ****
4604 TO1   -28.134000  112.636000  -17.391000 T    1535 GLP    -0.6000 ****
4605 HO1   -30.531000  122.231000  -18.873000 H    1535 GLP     0.4000 ****
4606 TO2   -32.919000  100.963000  -15.990000 T    1536 GLP     0.6000 ****
4607 TO1   -35.984000  110.365000  -17.479000 T    1536 GLP    -0.6000 ****
4608 HO1   -39.050000  119.766000  -18.968000 H    1536 GLP     0.4000 ****
4609 TO2   -39.936000   98.386000  -16.071000 T    1537 GLP     0.6000 ****
4610 TO1   -43.655000  107.547000  -17.567000 T    1537 GLP    -0.6000 ****
4611 HO1   -47.374000  116.709000  -19.063000 H    1537 GLP     0.4000 ****
4612 TO2   -46.755000   95.321000  -16.151000 T    1538 GLP     0.6000 ****
4613 TO1   -51.109000  104.197000  -17.655000 T    1538 GLP    -0.6000 ****
4614 HO1   -55.462000  113.073000  -19.159000 H    1538 GLP     0.4000 ****
4615 TO2   -53.341000   91.784000  -16.231000 T    1539 GLP     0.6000 ****
4616 TO1   -58.308000  100.330000  -17.743000 T    1539 GLP    -0.6000 ****
4617 HO1   -63.275000  108.877000  -19.254000 H    1539 GLP     0.4000 ****
4618 TO2   -59.662000   87.792000  -16.312000 T    1540 GLP     0.6000 ****
4619 TO1   -65.217000   95.966000  -17.831000 T    1540 GLP    -0.6000 ****
4620 HO1   -70.773000  104.141000  -19.349000 H    1540 GLP     0.4000 ****
4621 TO2   -65.686000   83.365000  -16.392000 T    1541 GLP     0.6000 ****
4622 TO1   -71.802000   91.127000  -17.918000 T    1541 GLP    -0.6000 ****
4623 HO1   -77.919000   98.890000  -19.445000 H    1541 GLP     0.4000 ****
4624 TO2   -71.383000   78.524000  -16.472000 T    1542 GLP     0.6000 ****
4625 TO1   -78.030000   85.836000  -18.006000 T    1542 GLP    -0.6000 ****
4626 HO1   -84.677000   93.148000  -19.540000 H    1542 GLP     0.4000 ****
4627 TO2   -76.726000   73.295000  -16.553000 T    1543 GLP     0.6000 ****
4628 TO1   -83.870000   80.120000  -18.094000 T    1543 GLP    -0.6000 ****
4629 HO1   -91.015000   86.945000  -19.635000 H    1543 GLP     0.4000 ****
4630 TO2   -81.687000   67.702000  -16.633000 T    1544 GLP     0.6000 ****
4631 TO1   -89.293000   74.007000  -18.182000 T    1544 GLP    -0.6000 ****
4632 HO1   -96.899000   80.311000  -19.731000 H    1544 GLP     0.4000 ****
4633 TO2   -86.241000   61.774000  -16.713000 T    1545 GLP     0.6000 ****
4634 TO1   -94.272000   67.527000  -18.270000 T    1545 GLP    -0.6000 ****
4635 HO1  -102.302000   73.279000  -19.826000 H    1545 GLP     0.4000 ****
4636 TO2   -90.367000   55.540000  -16.794000 T    1546 GLP     0.6000 ****
4637 TO1   -98.782000   60.712000  -18.358000 T    1546 GLP    -0.6000 ****
4638 HO1  -107.197000   65.884000  -19.921000 H    1546 GLP     0.4000 ****
4639 TO2   -94.044000   49.031000  -16.874000 T    1547 GLP     0.6000 ****
4640 TO1  -102.801000   53.596000  -18.445000 T    1547 GLP    -0.6000 ****
4641 HO1  -111.558000   58.162000  -20.017000 H    1547 GLP     0.4000 ****
4642 TO2   -97.252000   42.279000  -16.954000 T    1548 GLP     0.6000 ****
4643 TO1  -106.308000   46.215000  -18.533000 T    1548 GLP    -0.6000 ****
4644 HO1  -115.364000   50.152000  -20.112000 H    1548 GLP     0.4000 ****
4645 TO2   -99.977000   35.317000  -17.035000 T    1549 GLP     0.6000 ****
4646 TO1  -109.287000   38.606000  -18.621000 T    1549 GLP    -0.6000 ****
4647 HO1  -118.597000   41.894000  -20.207000 H    1549 GLP     0.4000 ****
4648 TO2  -102.205000   28.181000  -17.115000 T    1550 GLP     0.6000 ****
4649 TO1  -111.722000   30.805000  -18.709000 T    1550 GLP    -0.6000 ****
4650 HO1  -121.239000   33.429000  -20.303000 H    1550 GLP     0.4000 ****
4651 TO2  -103.924000   20.906000  -17.196000 T    1551 GLP     0.6000 ****
4652 TO1  -113.601000   22.852000  -18.797000 T    1551 GLP    -0.6000 ****
4653 HO1  -123.278000   24.799000  -20.398000 H    1551 GLP     0.4000 ****
4654 TO2  -105.126000   13.527000  -17.276000 T    1552 GLP     0.6000 ****
4655 TO1  -114.915000   14.787000  -18.885000 T    1552 GLP    -0.6000 ****
4656 HO1  -124.704000   16.046000  -20.493000 H    1552 GLP     0.4000 ****
4657 TO2  -105.805000    6.082000  -17.356000 T    1553 GLP     0.6000 ****
4658 TO1  -115.657000    6.648000  -18.972000 T    1553 GLP    -0.6000 ****
4659 HO1  -125.510000    7.215000  -20.589000 H    1553 GLP     0.4000 ****
4660 TO2  -105.958000   -1.392000  -17.437000 T    1554 GLP     0.6000 ****
4661 TO1  -115.824000   -1.522000  -19.060000 T    1554 GLP    -0.6000 ****
4662 HO1  -125.690000   -1.651000  -20.684000 H    1554 GLP     0.4000 ****
4663 TO2  -105.582000   -8.859000  -17.517000 T    1555 GLP     0.6000 ****
4664 TO1  -115.414000   -9.683000  -19.148000 T    1555 GLP    -0.6000 ****
4665 HO1  -125.245000  -10.508000  -20.779000 H    1555 GLP     0.4000 ****
4666 TO2  -104.682000  -16.280000  -17.597000 T    1556 GLP     0.6000 ****
4667 TO1  -114.429000  -17.796000  -19.236000 T    1556 GLP    -0.6000 ****
4668 HO1  -124.177000  -19.312000  -20.875000 H    1556 GLP     0.4000 ****
4669 TO2  -103.260000  -23.619000  -17.678000 T    1557 GLP     0.6000 ****
4670 TO1  -112.875000  -25.819000  -19.324000 T    1557 GLP    -0.6000 ****
4671 HO1  -122.490000  -28.018000  -20.970000 H    1557 GLP     0.4000 ****
4672 TO2  -101.324000  -30.840000  -17.758000 T    1558 GLP     0.6000 ****
4673 TO1  -110.759000  -33.712000  -19.412000 T    1558 GLP    -0.6000 ****
4674 HO1  -120.194000  -36.583000  -21.065000 H    1558 GLP     0.4000 ****
4675 TO2   -98.883000  -37.906000  -17.838000 T    1559 GLP     0.6000 ****
4676 TO1  -108.091000  -41.436000  -19.499000 T    1559 GLP    -0.6000 ****
4677 HO1  -117.299000  -44.965000  -21.160000 H    1559 GLP     0.4000 ****
4678 TO2   -95.950000  -44.782000  -17.919000 T    1560 GLP     0.6000 ****
4679 TO1  -104.885000  -48.952000  -19.587000 T    1560 GLP    -0.6000 ****
4680 HO1  -113.819000  -53.122000  -21.256000 H    1560 GLP     0.4000 ****
4681 TO2   -92.539000  -51.435000  -17.999000 T    1561 GLP     0.6000 ****
4682 TO1  -101.156000  -56.224000  -19.675000 T    1561 GLP    -0.6000 ****
4683 HO1  -109.773000  -61.014000  -21.351000 H    1561 GLP     0.4000 ****
4684 TO2   -88.667000  -57.830000  -18.079000 T    1562 GLP     0.6000 ****
4685 TO1   -96.923000  -63.214000  -19.763000 T    1562 GLP    -0.6000 ****
4686 HO1  -105.180000  -68.599000  -21.446000 H    1562 GLP     0.4000 ****
4687 TO2   -84.353000  -63.935000  -18.160000 T    1563 GLP     0.6000 ****
4688 TO1   -92.208000  -69.889000  -19.851000 T    1563 GLP    -0.6000 ****
4689 HO1  -100.063000  -75.842000  -21.542000 H    1563 GLP     0.4000 ****
4690 TO2   -79.619000  -69.721000  -18.240000 T    1564 GLP     0.6000 ****
4691 TO1   -87.033000  -76.213000  -19.939000 T    1564 GLP    -0.6000 ****
4692 HO1   -94.447000  -82.705000  -21.637000 H    1564 GLP     0.4000 ****
4693 TO2   -74.489000  -75.158000  -18.320000 T    1565 GLP     0.6000 ****
4694 TO1   -81.425000  -82.157000  -20.026000 T    1565 GLP    -0.6000 ****
4695 HO1   -88.361000  -89.155000  -21.732000 H    1565 GLP     0.4000 ****
4696 TO2   -68.987000  -80.220000  -18.401000 T    1566 GLP     0.6000 ****
4697 TO1   -75.411000  -87.689000  -20.114000 T    1566 GLP    -0.6000 ****
4698 HO1   -81.835000  -95.159000  -21.828000 H    1566 GLP     0.4000 ****
4699 TO2   -63.141000  -84.880000  -18.481000 T    1567 GLP     0.6000 ****
4700 TO1   -69.021000  -92.784000  -20.202000 T    1567 GLP    -0.6000 ****
4701 HO1   -74.901000 -100.687000  -21.923000 H    1567 GLP     0.4000 ****
4702 TO2   -56.981000  -89.115000  -18.562000 T    1568 GLP     0.6000 ****
4703 TO1   -62.287000  -97.414000  -20.290000 T    1568 GLP    -0.6000 ****
4704 HO1   -67.593000 -105.712000  -22.018000 H    1568 GLP     0.4000 ****
4705 TO2   -50.538000  -92.905000  -18.642000 T    1569 GLP     0.6000 ****
4706 TO1   -55.243000 -101.556000  -20.378000 T    1569 GLP    -0.6000 ****
4707 HO1   -59.949000 -110.208000  -22.114000 H    1569 GLP     0.4000 ****
4708 TO2   -43.842000  -96.231000  -18.722000 T    1570 GLP     0.6000 ****
4709 TO1   -47.924000 -105.191000  -20.466000 T    1570 GLP    -0.6000 ****
4710 HO1   -52.007000 -114.152000  -22.209000 H    1570 GLP     0.4000 ****
4711 TO2   -36.928000  -99.074000  -18.803000 T    1571 GLP     0.6000 ****
4712 TO1   -40.367000 -108.300000  -20.553000 T    1571 GLP    -0.6000 ****
4713 HO1   -43.806000 -117.525000  -22.304000 H    1571 GLP     0.4000 ****
4714 TO2   -29.831000 -101.422000  -18.883000 T    1572 GLP     0.6000 ****
4715 TO1   -32.609000 -110.867000  -20.641000 T    1572 GLP    -0.6000 ****
4716 HO1   -35.386000 -120.311000  -22.400000 H    1572 GLP     0.4000 ****
4717 TO2   -22.585000 -103.263000  -18.963000 T    1573 GLP     0.6000 ****
4718 TO1   -24.688000 -112.879000  -20.729000 T    1573 GLP    -0.6000 ****
4719 HO1   -26.791000 -122.494000  -22.495000 H    1573 GLP     0.4000 ****
4720 TO2   -15.228000 -104.587000  -19.044000 T    1574 GLP     0.6000 ****
4721 TO1   -16.646000 -114.326000  -20.817000 T    1574 GLP    -0.6000 ****
4722 HO1   -18.064000 -124.065000  -22.590000 H    1574 GLP     0.4000 ****
4723 TO2    -7.795000 -105.387000  -19.124000 T    1575 GLP     0.6000 ****
4724 TO1    -8.521000 -115.201000  -20.905000 T    1575 GLP    -0.6000 ****
4725 HO1    -9.247000 -125.014000  -22.686000 H    1575 GLP     0.4000 ****
4726 TO2    -0.324000 -105.660000  -19.204000 T    1576 GLP     0.6000 ****
4727 TO1    -0.354000 -115.499000  -20.993000 T    1576 GLP    -0.6000 ****
4728 HO1    -0.385000 -125.338000  -22.781000 H    1576 GLP     0.4000 ****
4729 TO2     7.147000 -105.404000  -19.285000 T    1577 GLP     0.6000 ****
4730 TO1     7.813000 -115.219000  -21.080000 T    1577 GLP    -0.6000 ****
4731 HO1     8.478000 -125.034000  -22.876000 H    1577 GLP     0.4000 ****
4732 TO2    14.582000 -104.620000  -19.365000 T    1578 GLP     0.6000 ****
4733 TO1    15.939000 -114.362000  -21.168000 T    1578 GLP    -0.6000 ****
4734 HO1    17.297000 -124.104000  -22.971000 H    1578 GLP     0.4000 ****
4735 TO2    21.942000 -103.312000  -19.445000 T    1579 GLP     0.6000 ****
4736 TO1    23.985000 -112.932000  -21.256000 T    1579 GLP    -0.6000 ****
4737 HO1    26.028000 -122.552000  -23.067000 H    1579 GLP     0.4000 ****
4738 TO2    29.192000 -101.487000  -19.526000 T    1580 GLP     0.6000 ****
4739 TO1    31.910000 -110.937000  -21.344000 T    1580 GLP    -0.6000 ****
4740 HO1    34.628000 -120.387000  -23.162000 H    1580 GLP     0.4000 ****
4741 TO2    36.294000  -99.153000  -19.606000 T    1581 GLP     0.6000 ****
4742 TO1    39.673000 -108.386000  -21.432000 T    1581 GLP    -0.6000 ****
4743 HO1    43.053000 -117.619000  -23.257000 H    1581 GLP     0.4000 ****
4744 TO2    43.213000  -96.323000  -19.686000 T    1582 GLP     0.6000 ****
4745 TO1    47.237000 -105.292000  -21.520000 T    1582 GLP    -0.6000 ****
4746 HO1    51.261000 -114.261000  -23.353000 H    1582 GLP     0.4000 ****
4747 TO2    49.914000  -93.010000  -19.767000 T    1583 GLP     0.6000 ****
4748 TO1    54.562000 -101.670000  -21.607000 T    1583 GLP    -0.6000 ****
4749 HO1    59.210000 -110.331000  -23.448000 H    1583 GLP     0.4000 ****
4750 TO2    56.365000  -89.231000  -19.847000 T    1584 GLP     0.6000 ****
4751 TO1    61.613000  -97.539000  -21.695000 T    1584 GLP    -0.6000 ****
4752 HO1    66.862000 -105.848000  -23.543000 H    1584 GLP     0.4000 ****
4753 TO2    62.531000  -85.004000  -19.928000 T    1585 GLP     0.6000 ****
4754 TO1    68.354000  -92.920000  -21.783000 T    1585 GLP    -0.6000 ****
4755 HO1    74.176000 -100.835000  -23.639000 H    1585 GLP     0.4000 ****
4756 TO2    68.383000  -80.352000  -20.008000 T    1586 GLP     0.6000 ****
4757 TO1    74.750000  -87.834000  -21.871000 T    1586 GLP    -0.6000 ****
4758 HO1    81.118000  -95.316000  -23.734000 H    1586 GLP     0.4000 ****
4759 TO2    73.890000  -75.297000  -20.088000 T    1587 GLP     0.6000 ****
4760 TO1    80.771000  -82.309000  -21.959000 T    1587 GLP    -0.6000 ****
4761 HO1    87.651000  -89.320000  -23.829000 H    1587 GLP     0.4000 ****
4762 TO2    79.026000  -69.865000  -20.169000 T    1588 GLP     0.6000 ****
4763 TO1    86.385000  -76.370000  -22.047000 T    1588 GLP    -0.6000 ****
4764 HO1    93.743000  -82.876000  -23.925000 H    1588 GLP     0.4000 ****
4765 TO2    83.764000  -64.082000  -20.249000 T    1589 GLP     0.6000 ****
4766 TO1    91.564000  -70.049000  -22.134000 T    1589 GLP    -0.6000 ****
4767 HO1    99.364000  -76.017000  -24.020000 H    1589 GLP     0.4000 ****
4768 TO2    88.080000  -57.979000  -20.329000 T    1590 GLP     0.6000 ****
4769 TO1    96.282000  -63.377000  -22.222000 T    1590 GLP    -0.6000 ****
4770 HO1   104.484000  -68.776000  -24.115000 H    1590 GLP     0.4000 ****
4771 TO2    91.954000  -51.584000  -20.410000 T    1591 GLP     0.6000 ****
4772 TO1   100.516000  -56.388000  -22.310000 T    1591 GLP    -0.6000 ****
4773 HO1   109.078000  -61.191000  -24.211000 H    1591 GLP     0.4000 ****
4774 TO2    95.364000  -44.932000  -20.490000 T    1592 GLP     0.6000 ****
4775 TO1   104.244000  -49.116000  -22.398000 T    1592 GLP    -0.6000 ****
4776 HO1   113.124000  -53.300000  -24.306000 H    1592 GLP     0.4000 ****
4777 TO2    98.294000  -38.054000  -20.570000 T    1593 GLP     0.6000 ****
4778 TO1   107.447000  -41.598000  -22.486000 T    1593 GLP    -0.6000 ****
4779 HO1   116.600000  -45.141000  -24.401000 H    1593 GLP     0.4000 ****
4780 TO2   100.729000  -30.986000  -20.651000 T    1594 GLP     0.6000 ****
4781 TO1   110.109000  -33.872000  -22.574000 T    1594 GLP    -0.6000 ****
4782 HO1   119.488000  -36.757000  -24.497000 H    1594 GLP     0.4000 ****
4783 TO2   102.657000  -23.764000  -20.731000 T    1595 GLP     0.6000 ****
4784 TO1   112.216000  -25.976000  -22.661000 T    1595 GLP    -0.6000 ****
4785 HO1   121.775000  -28.189000  -24.592000 H    1595 GLP     0.4000 ****
4786 TO2   104.068000  -16.422000  -20.811000 T    1596 GLP     0.6000 ****
4787 TO1   113.759000  -17.952000  -22.749000 T    1596 GLP    -0.6000 ****
4788 HO1   123.449000  -19.481000  -24.687000 H    1596 GLP     0.4000 ****
4789 TO2   104.955000   -8.999000  -20.892000 T    1597 GLP     0.6000 ****
4790 TO1   114.728000   -9.837000  -22.837000 T    1597 GLP    -0.6000 ****
4791 HO1   124.501000  -10.675000  -24.783000 H    1597 GLP     0.4000 ****
4792 TO2   105.313000   -1.532000  -20.972000 T    1598 GLP     0.6000 ****
4793 TO1   115.119000   -1.675000  -22.925000 T    1598 GLP    -0.6000 ****
4794 HO1   124.926000   -1.818000  -24.878000 H    1598 GLP     0.4000 ****
4795 TO2   105.140000    5.941000  -21.052000 T    1599 GLP     0.6000 ****
4796 TO1   114.931000    6.495000  -23.013000 T    1599 GLP    -0.6000 ****
4797 HO1   124.721000    7.048000  -24.973000 H    1599 GLP     0.4000 ****
4798 TO2   104.438000   13.384000  -21.133000 T    1600 GLP     0.6000 ****
4799 TO1   114.163000   14.630000  -23.101000 T    1600 GLP    -0.6000 ****
4800 HO1   123.888000   15.877000  -25.068000 H    1600 GLP     0.4000 ****
4801 TO2   103.209000   20.758000  -21.213000 T    1601 GLP     0.6000 ****
4802 TO1   112.819000   22.691000  -23.188000 T    1601 GLP    -0.6000 ****
4803 HO1   122.430000   24.624000  -25.164000 H    1601 GLP     0.4000 ****
4804 TO2   101.460000   28.026000  -21.294000 T    1602 GLP     0.6000 ****
4805 TO1   110.907000   30.636000  -23.276000 T    1602 GLP    -0.6000 ****
4806 HO1   120.355000   33.246000  -25.259000 H    1602 GLP     0.4000 ****
4807 TO2    99.199000   35.152000  -21.374000 T    1603 GLP     0.6000 ****
4808 TO1   108.436000   38.425000  -23.364000 T    1603 GLP    -0.6000 ****
4809 HO1   117.673000   41.698000  -25.354000 H    1603 GLP     0.4000 ****
4810 TO2    96.438000   42.099000  -21.454000 T    1604 GLP     0.6000 ****
4811 TO1   105.418000   46.019000  -23.452000 T    1604 GLP    -0.6000 ****
4812 HO1   114.399000   49.939000  -25.450000 H    1604 GLP     0.4000 ****
4813 TO2    93.191000   48.833000  -21.535000 T    1605 GLP     0.6000 ****
4814 TO1   101.869000   53.380000  -23.540000 T    1605 GLP    -0.6000 ****
4815 HO1   110.547000   57.927000  -25.545000 H    1605 GLP     0.4000 ****
4816 TO2    89.474000   55.319000  -21.615000 T    1606 GLP     0.6000 ****
4817 TO1    97.806000   60.470000  -23.628000 T    1606 GLP    -0.6000 ****
4818 HO1   106.137000   65.621000  -25.640000 H    1606 GLP     0.4000 ****
4819 TO2    85.306000   61.524000  -21.695000 T    1607 GLP     0.6000 ****
4820 TO1    93.249000   67.253000  -23.715000 T    1607 GLP    -0.6000 ****
4821 HO1   101.192000   72.982000  -25.736000 H    1607 GLP     0.4000 ****
4822 TO2    80.707000   67.418000  -21.776000 T    1608 GLP     0.6000 ****
4823 TO1    88.222000   73.696000  -23.803000 T    1608 GLP    -0.6000 ****
4824 HO1    95.737000   79.974000  -25.831000 H    1608 GLP     0.4000 ****
4825 TO2    75.701000   72.970000  -21.856000 T    1609 GLP     0.6000 ****
4826 TO1    82.750000   79.765000  -23.891000 T    1609 GLP    -0.6000 ****
4827 HO1    89.799000   86.560000  -25.926000 H    1609 GLP     0.4000 ****
4828 TO2    70.313000   78.152000  -21.936000 T    1610 GLP     0.6000 ****
4829 TO1    76.861000   85.430000  -23.979000 T    1610 GLP    -0.6000 ****
4830 HO1    83.408000   92.707000  -26.022000 H    1610 GLP     0.4000 ****
4831 TO2    64.571000   82.939000  -22.017000 T    1611 GLP     0.6000 ****
4832 TO1    70.583000   90.662000  -24.067000 T    1611 GLP    -0.6000 ****
4833 HO1    76.596000   98.385000  -26.117000 H    1611 GLP     0.4000 ****
4834 TO2    58.503000   87.305000  -22.097000 T    1612 GLP     0.6000 ****
4835 TO1    63.950000   95.434000  -24.155000 T    1612 GLP    -0.6000 ****
4836 HO1    69.398000  103.564000  -26.212000 H    1612 GLP     0.4000 ****
4837 TO2    52.139000   91.228000  -22.177000 T    1613 GLP     0.6000 ****
4838 TO1    56.994000   99.723000  -24.242000 T    1613 GLP    -0.6000 ****
4839 HO1    61.849000  108.218000  -26.308000 H    1613 GLP     0.4000 ****
4840 TO2    45.513000   94.690000  -22.258000 T    1614 GLP     0.6000 ****
4841 TO1    49.751000  103.507000  -24.330000 T    1614 GLP    -0.6000 ****
4842 HO1    53.989000  112.324000  -26.403000 H    1614 GLP     0.4000 ****
4843 TO2    38.658000   97.671000  -22.338000 T    1615 GLP     0.6000 ****
4844 TO1    42.257000  106.765000  -24.418000 T    1615 GLP    -0.6000 ****
4845 HO1    45.857000  115.860000  -26.498000 H    1615 GLP     0.4000 ****
4846 TO2    31.607000  100.157000  -22.418000 T    1616 GLP     0.6000 ****
4847 TO1    34.551000  109.483000  -24.506000 T    1616 GLP    -0.6000 ****
4848 HO1    37.494000  118.809000  -26.594000 H    1616 GLP     0.4000 ****
4849 TO2    24.398000  102.135000  -22.499000 T    1617 GLP     0.6000 ****
4850 TO1    26.670000  111.645000  -24.594000 T    1617 GLP    -0.6000 ****
4851 HO1    28.942000  121.156000  -26.689000 H    1617 GLP     0.4000 ****
4852 TO2    17.067000  103.595000  -22.579000 T    1618 GLP     0.6000 ****
4853 TO1    18.656000  113.241000  -24.682000 T    1618 GLP    -0.6000 ****
4854 HO1    20.245000  122.888000  -26.784000 H    1618 GLP     0.4000 ****
4855 TO2     9.650000  104.529000  -22.660000 T    1619 GLP     0.6000 ****
4856 TO1    10.548000  114.263000  -24.770000 T    1619 GLP    -0.6000 ****
4857 HO1    11.447000  123.996000  -26.879000 H    1619 GLP     0.4000 ****
4858 TO2     2.185000  104.934000  -22.740000 T    1620 GLP     0.6000 ****
4859 TO1     2.389000  114.705000  -24.857000 T    1620 GLP    -0.6000 ****
4860 HO1     2.592000  124.476000  -26.975000 H    1620 GLP     0.4000 ****
4861 TO2    -5.289000  104.806000  -22.820000 T    1621 GLP     0.6000 ****
4862 TO1    -5.782000  114.565000  -24.945000 T    1621 GLP    -0.6000 ****
4863 HO1    -6.275000  124.324000  -27.070000 H    1621 GLP     0.4000 ****
4864 TO2   -12.736000  104.146000  -22.901000 T    1622 GLP     0.6000 ****
4865 TO1   -13.922000  113.843000  -25.033000 T    1622 GLP    -0.6000 ****
4866 HO1   -15.108000  123.541000  -27.165000 H    1622 GLP     0.4000 ****
4867 TO2   -20.116000  102.957000  -22.981000 T    1623 GLP     0.6000 ****
4868 TO1   -21.990000  112.544000  -25.121000 T    1623 GLP    -0.6000 ****
4869 HO1   -23.863000  122.131000  -27.261000 H    1623 GLP     0.4000 ****
4870 TO2   -27.394000  101.246000  -23.061000 T    1624 GLP     0.6000 ****
4871 TO1   -29.944000  110.674000  -25.209000 T    1624 GLP    -0.6000 ****
4872 HO1   -32.495000  120.101000  -27.356000 H    1624 GLP     0.4000 ****
4873 TO2   -34.530000   99.021000  -23.142000 T    1625 GLP     0.6000 ****
4874 TO1   -37.746000  108.241000  -25.297000 T    1625 GLP    -0.6000 ****
4875 HO1   -40.961000  117.462000  -27.451000 H    1625 GLP     0.4000 ****
4876 TO2   -41.490000   96.293000  -23.222000 T    1626 GLP     0.6000 ****
4877 TO1   -45.354000  105.259000  -25.384000 T    1626 GLP    -0.6000 ****
4878 HO1   -49.217000  114.226000  -27.547000 H    1626 GLP     0.4000 ****
4879 TO2   -48.238000   93.075000  -23.302000 T    1627 GLP     0.6000 ****
4880 TO1   -52.730000  101.742000  -25.472000 T    1627 GLP    -0.6000 ****
4881 HO1   -57.222000  110.409000  -27.642000 H    1627 GLP     0.4000 ****
4882 TO2   -54.740000   89.386000  -23.383000 T    1628 GLP     0.6000 ****
4883 TO1   -59.837000   97.709000  -25.560000 T    1628 GLP    -0.6000 ****
4884 HO1   -64.934000  106.032000  -27.737000 H    1628 GLP     0.4000 ****
4885 TO2   -60.962000   85.242000  -23.463000 T    1629 GLP     0.6000 ****
4886 TO1   -66.638000   93.179000  -25.648000 T    1629 GLP    -0.6000 ****
4887 HO1   -72.315000  101.117000  -27.833000 H    1629 GLP     0.4000 ****
4888 TO2   -66.872000   80.665000  -23.543000 T    1630 GLP     0.6000 ****
4889 TO1   -73.099000   88.176000  -25.736000 T    1630 GLP    -0.6000 ****
4890 HO1   -79.326000   95.687000  -27.928000 H    1630 GLP     0.4000 ****
4891 TO2   -72.441000   75.678000  -23.624000 T    1631 GLP     0.6000 ****
4892 TO1   -79.187000   82.725000  -25.824000 T    1631 GLP    -0.6000 ****
4893 HO1   -85.932000   89.772000  -28.023000 H    1631 GLP     0.4000 ****
4894 TO2   -77.641000   70.306000  -23.704000 T    1632 GLP     0.6000 ****
4895 TO1   -84.870000   76.853000  -25.911000 T    1632 GLP    -0.6000 ****
4896 HO1   -92.100000   83.400000  -28.119000 H    1632 GLP     0.4000 ****
4897 TO2   -82.444000   64.578000  -23.784000 T    1633 GLP     0.6000 ****
4898 TO1   -90.121000   70.591000  -25.999000 T    1633 GLP    -0.6000 ****
4899 HO1   -97.798000   76.605000  -28.214000 H    1633 GLP     0.4000 ****
4900 TO2   -86.826000   58.521000  -23.865000 T    1634 GLP     0.6000 ****
4901 TO1   -94.911000   63.971000  -26.087000 T    1634 GLP    -0.6000 ****
4902 HO1  -102.996000   69.420000  -28.309000 H    1634 GLP     0.4000 ****
4903 TO2   -90.764000   52.167000  -23.945000 T    1635 GLP     0.6000 ****
4904 TO1   -99.216000   57.025000  -26.175000 T    1635 GLP    -0.6000 ****
4905 HO1  -107.668000   61.883000  -28.405000 H    1635 GLP     0.4000 ****
4906 TO2   -94.239000   45.549000  -24.026000 T    1636 GLP     0.6000 ****
4907 TO1  -103.015000   49.790000  -26.263000 T    1636 GLP    -0.6000 ****
4908 HO1  -111.790000   54.031000  -28.500000 H    1636 GLP     0.4000 ****
4909 TO2   -97.233000   38.699000  -24.106000 T    1637 GLP     0.6000 ****
4910 TO1  -106.287000   42.302000  -26.351000 T    1637 GLP    -0.6000 ****
4911 HO1  -115.341000   45.906000  -28.595000 H    1637 GLP     0.4000 ****
4912 TO2   -99.730000   31.653000  -24.186000 T    1638 GLP     0.6000 ****
4913 TO1  -109.017000   34.600000  -26.438000 T    1638 GLP    -0.6000 ****
4914 HO1  -118.303000   37.547000  -28.691000 H    1638 GLP     0.4000 ****
4915 TO2  -101.718000   24.446000  -24.267000 T    1639 GLP     0.6000 ****
4916 TO1  -111.189000   26.722000  -26.526000 T    1639 GLP    -0.6000 ****
4917 HO1  -120.661000   28.999000  -28.786000 H    1639 GLP     0.4000 ****
4918 TO2  -103.185000   17.116000  -24.347000 T    1640 GLP     0.6000 ****
4919 TO1  -112.794000   18.710000  -26.614000 T    1640 GLP    -0.6000 ****
4920 HO1  -122.402000   20.304000  -28.881000 H    1640 GLP     0.4000 ****
4921 TO2  -104.126000    9.700000  -24.427000 T    1641 GLP     0.6000 ****
4922 TO1  -113.822000   10.603000  -26.702000 T    1641 GLP    -0.6000 ****
4923 HO1  -123.518000   11.506000  -28.976000 H    1641 GLP     0.4000 ****
4924 TO2  -104.534000    2.235000  -24.508000 T    1642 GLP     0.6000 ****
4925 TO1  -114.268000    2.444000  -26.790000 T    1642 GLP    -0.6000 ****
4926 HO1  -124.002000    2.652000  -29.072000 H    1642 GLP     0.4000 ****
4927 TO2  -104.408000   -5.239000  -24.588000 T    1643 GLP     0.6000 ****
4928 TO1  -114.130000   -5.727000  -26.878000 T    1643 GLP    -0.6000 ****
4929 HO1  -123.852000   -6.215000  -29.167000 H    1643 GLP     0.4000 ****
4930 TO2  -103.747000  -12.685000  -24.668000 T    1644 GLP     0.6000 ****
4931 TO1  -113.408000  -13.867000  -26.965000 T    1644 GLP    -0.6000 ****
4932 HO1  -123.069000  -15.048000  -29.262000 H    1644 GLP     0.4000 ****
4933 TO2  -102.557000  -20.065000  -24.749000 T    1645 GLP     0.6000 ****
4934 TO1  -112.106000  -21.934000  -27.053000 T    1645 GLP    -0.6000 ****
4935 HO1  -121.656000  -23.802000  -29.358000 H    1645 GLP     0.4000 ****
4936 TO2  -100.841000  -27.342000  -24.829000 T    1646 GLP     0.6000 ****
4937 TO1  -110.231000  -29.887000  -27.141000 T    1646 GLP    -0.6000 ****
4938 HO1  -119.621000  -32.433000  -29.453000 H    1646 GLP     0.4000 ****
4939 TO2   -98.610000  -34.476000  -24.909000 T    1647 GLP     0.6000 ****
4940 TO1  -107.792000  -37.687000  -27.229000 T    1647 GLP    -0.6000 ****
4941 HO1  -116.974000  -40.897000  -29.548000 H    1647 GLP     0.4000 ****
4942 TO2   -95.874000  -41.433000  -24.990000 T    1648 GLP     0.6000 ****
4943 TO1  -104.801000  -45.291000  -27.317000 T    1648 GLP    -0.6000 ****
4944 HO1  -113.729000  -49.149000  -29.644000 H    1648 GLP     0.4000 ****
4945 TO2   -92.647000  -48.176000  -25.070000 T    1649 GLP     0.6000 ****
4946 TO1  -101.274000  -52.663000  -27.405000 T    1649 GLP    -0.6000 ****
4947 HO1  -109.901000  -57.149000  -29.739000 H    1649 GLP     0.4000 ****
4948 TO2   -88.946000  -54.672000  -25.150000 T    1650 GLP     0.6000 ****
4949 TO1   -97.229000  -59.763000  -27.492000 T    1650 GLP    -0.6000 ****
4950 HO1  -105.511000  -64.853000  -29.834000 H    1650 GLP     0.4000 ****
4951 TO2   -84.790000  -60.885000  -25.231000 T    1651 GLP     0.6000 ****
4952 TO1   -92.685000  -66.555000  -27.580000 T    1651 GLP    -0.6000 ****
4953 HO1  -100.581000  -72.224000  -29.930000 H    1651 GLP     0.4000 ****
4954 TO2   -80.200000  -66.786000  -25.311000 T    1652 GLP     0.6000 ****
4955 TO1   -87.668000  -73.004000  -27.668000 T    1652 GLP    -0.6000 ****
4956 HO1   -95.136000  -79.223000  -30.025000 H    1652 GLP     0.4000 ****
4957 TO2   -75.199000  -72.342000  -25.392000 T    1653 GLP     0.6000 ****
4958 TO1   -82.201000  -79.078000  -27.756000 T    1653 GLP    -0.6000 ****
4959 HO1   -89.203000  -85.815000  -30.120000 H    1653 GLP     0.4000 ****
4960 TO2   -69.813000  -77.526000  -25.472000 T    1654 GLP     0.6000 ****
4961 TO1   -76.314000  -84.745000  -27.844000 T    1654 GLP    -0.6000 ****
4962 HO1   -82.815000  -91.964000  -30.216000 H    1654 GLP     0.4000 ****
4963 TO2   -64.070000  -82.311000  -25.552000 T    1655 GLP     0.6000 ****
4964 TO1   -70.036000  -89.976000  -27.932000 T    1655 GLP    -0.6000 ****
4965 HO1   -76.002000  -97.640000  -30.311000 H    1655 GLP     0.4000 ****
4966 TO2   -57.998000  -86.673000  -25.633000 T    1656 GLP     0.6000 ****
4967 TO1   -63.399000  -94.743000  -28.019000 T    1656 GLP    -0.6000 ****
4968 HO1   -68.799000 -102.814000  -30.406000 H    1656 GLP     0.4000 ****
4969 TO2   -51.630000  -90.588000  -25.713000 T    1657 GLP     0.6000 ****
4970 TO1   -56.438000  -99.023000  -28.107000 T    1657 GLP    -0.6000 ****
4971 HO1   -61.245000 -107.458000  -30.502000 H    1657 GLP     0.4000 ****
4972 TO2   -44.998000  -94.037000  -25.793000 T    1658 GLP     0.6000 ****
4973 TO1   -49.188000 -102.793000  -28.195000 T    1658 GLP    -0.6000 ****
4974 HO1   -53.378000 -111.549000  -30.597000 H    1658 GLP     0.4000 ****
4975 TO2   -38.135000  -97.001000  -25.874000 T    1659 GLP     0.6000 ****
4976 TO1   -41.686000 -106.034000  -28.283000 T    1659 GLP    -0.6000 ****
4977 HO1   -45.237000 -115.066000  -30.692000 H    1659 GLP     0.4000 ****
4978 TO2   -31.078000  -99.466000  -25.954000 T    1660 GLP     0.6000 ****
4979 TO1   -33.971000 -108.728000  -28.371000 T    1660 GLP    -0.6000 ****
4980 HO1   -36.865000 -117.990000  -30.788000 H    1660 GLP     0.4000 ****
4981 TO2   -23.862000 -101.419000  -26.034000 T    1661 GLP     0.6000 ****
4982 TO1   -26.084000 -110.863000  -28.459000 T    1661 GLP    -0.6000 ****
4983 HO1   -28.306000 -120.307000  -30.883000 H    1661 GLP     0.4000 ****
4984 TO2   -16.524000 -102.849000  -26.115000 T    1662 GLP     0.6000 ****
4985 TO1   -18.063000 -112.426000  -28.546000 T    1662 GLP    -0.6000 ****
4986 HO1   -19.602000 -122.003000  -30.978000 H    1662 GLP     0.4000 ****
4987 TO2    -9.103000 -103.749000  -26.195000 T    1663 GLP     0.6000 ****
4988 TO1    -9.951000 -113.410000  -28.634000 T    1663 GLP    -0.6000 ****
4989 HO1   -10.798000 -123.071000  -31.073000 H    1663 GLP     0.4000 ****
4990 TO2    -1.637000 -104.115000  -26.275000 T    1664 GLP     0.6000 ****
4991 TO1    -1.789000 -113.810000  -28.722000 T    1664 GLP    -0.6000 ****
4992 HO1    -1.941000 -123.505000  -31.169000 H    1664 GLP     0.4000 ****
4993 TO2     5.837000 -103.944000  -26.356000 T    1665 GLP     0.6000 ****
4994 TO1     6.380000 -113.623000  -28.810000 T    1665 GLP    -0.6000 ****
4995 HO1     6.924000 -123.301000  -31.264000 H    1665 GLP     0.4000 ****
4996 TO2    13.279000 -103.236000  -26.436000 T    1666 GLP     0.6000 ****
4997 TO1    14.515000 -112.850000  -28.898000 T    1666 GLP    -0.6000 ****
4998 HO1    15.752000 -122.463000  -31.359000 H    1666 GLP     0.4000 ****
4999 TO2    20.651000 -101.997000  -26.516000 T    1667 GLP     0.6000 ****
5000 TO1    22.574000 -111.495000  -28.986000 T    1667 GLP    -0.6000 ****
5001 HO1    24.497000 -120.992000  -31.455000 H    1667 GLP     0.4000 ****
5002 TO2    27.915000 -100.231000  -26.597000 T    1668 GLP     0.6000 ****
5003 TO1    30.514000 -109.565000  -29.073000 T    1668 GLP    -0.6000 ****
5004 HO1    33.114000 -118.898000  -31.550000 H    1668 GLP     0.4000 ****
5005 TO2    35.033000  -97.949000  -26.677000 T    1669 GLP     0.6000 ****
5006 TO1    38.296000 -107.069000  -29.161000 T    1669 GLP    -0.6000 ****
5007 HO1    41.558000 -116.190000  -31.645000 H    1669 GLP     0.4000 ****
5008 TO2    41.969000  -95.161000  -26.758000 T    1670 GLP     0.6000 ****
5009 TO1    45.877000 -104.022000  -29.249000 T    1670 GLP    -0.6000 ****
5010 HO1    49.786000 -112.883000  -31.741000 H    1670 GLP     0.4000 ****
5011 TO2    48.687000  -91.882000  -26.838000 T    1671 GLP     0.6000 ****
5012 TO1    53.221000 -100.437000  -29.337000 T    1671 GLP    -0.6000 ****
5013 HO1    57.755000 -108.993000  -31.836000 H    1671 GLP     0.4000 ****
5014 TO2    55.152000  -88.128000  -26.918000 T    1672 GLP     0.6000 ****
5015 TO1    60.288000  -96.335000  -29.425000 T    1672 GLP    -0.6000 ****
5016 HO1    65.423000 -104.541000  -31.931000 H    1672 GLP     0.4000 ****
5017 TO2    61.331000  -83.920000  -26.999000 T    1673 GLP     0.6000 ****
5018 TO1    67.042000  -91.735000  -29.513000 T    1673 GLP    -0.6000 ****
5019 HO1    72.753000  -99.549000  -32.027000 H    1673 GLP     0.4000 ****
5020 TO2    67.191000  -79.279000  -27.079000 T    1674 GLP     0.6000 ****
5021 TO1    73.447000  -86.661000  -29.600000 T    1674 GLP    -0.6000 ****
5022 HO1    79.704000  -94.043000  -32.122000 H    1674 GLP     0.4000 ****
5023 TO2    72.702000  -74.228000  -27.159000 T    1675 GLP     0.6000 ****
5024 TO1    79.472000  -81.140000  -29.688000 T    1675 GLP    -0.6000 ****
5025 HO1    86.241000  -88.052000  -32.217000 H    1675 GLP     0.4000 ****
5026 TO2    77.835000  -68.794000  -27.240000 T    1676 GLP     0.6000 ****
5027 TO1    85.083000  -75.200000  -29.776000 T    1676 GLP    -0.6000 ****
5028 HO1    92.331000  -81.606000  -32.313000 H    1676 GLP     0.4000 ****
5029 TO2    82.565000  -63.005000  -27.320000 T    1677 GLP     0.6000 ****
5030 TO1    90.253000  -68.872000  -29.864000 T    1677 GLP    -0.6000 ****
5031 HO1    97.941000  -74.738000  -32.408000 H    1677 GLP     0.4000 ****
5032 TO2    86.866000  -56.890000  -27.400000 T    1678 GLP     0.6000 ****
5033 TO1    94.954000  -62.188000  -29.952000 T    1678 GLP    -0.6000 ****
5034 HO1   103.043000  -67.485000  -32.503000 H    1678 GLP     0.4000 ****
5035 TO2    90.715000  -50.482000  -27.481000 T    1679 GLP     0.6000 ****
5036 TO1    99.163000  -55.183000  -30.040000 T    1679 GLP    -0.6000 ****
5037 HO1   107.610000  -59.884000  -32.599000 H    1679 GLP     0.4000 ****
5038 TO2    94.094000  -43.814000  -27.561000 T    1680 GLP     0.6000 ****
5039 TO1   102.856000  -47.894000  -30.127000 T    1680 GLP    -0.6000 ****
5040 HO1   111.618000  -51.974000  -32.694000 H    1680 GLP     0.4000 ****
5041 TO2    96.984000  -36.920000  -27.641000 T    1681 GLP     0.6000 ****
5042 TO1   106.015000  -40.358000  -30.215000 T    1681 GLP    -0.6000 ****
5043 HO1   115.045000  -43.795000  -32.789000 H    1681 GLP     0.4000 ****
5044 TO2    99.370000  -29.835000  -27.722000 T    1682 GLP     0.6000 ****
5045 TO1   108.623000  -32.613000  -30.303000 T    1682 GLP    -0.6000 ****
5046 HO1   117.876000  -35.392000  -32.884000 H    1682 GLP     0.4000 ****
5047 TO2   101.239000  -22.597000  -27.802000 T    1683 GLP     0.6000 ****
5048 TO1   110.666000  -24.702000  -30.391000 T    1683 GLP    -0.6000 ****
5049 HO1   120.093000  -26.806000  -32.980000 H    1683 GLP     0.4000 ****
5050 TO2   102.582000  -15.244000  -27.882000 T    1684 GLP     0.6000 ****
5051 TO1   112.135000  -16.663000  -30.479000 T    1684 GLP    -0.6000 ****
5052 HO1   121.687000  -18.083000  -33.075000 H    1684 GLP     0.4000 ****
5053 TO2   103.393000   -7.812000  -27.963000 T    1685 GLP     0.6000 ****
5054 TO1   113.020000   -8.540000  -30.567000 T    1685 GLP    -0.6000 ****
5055 HO1   122.648000   -9.267000  -33.170000 H    1685 GLP     0.4000 ****
5056 TO2   103.665000   -0.342000  -28.043000 T    1686 GLP     0.6000 ****
5057 TO1   113.318000   -0.374000  -30.654000 T    1686 GLP    -0.6000 ****
5058 HO1   122.971000   -0.405000  -33.266000 H    1686 GLP     0.4000 ****
5059 TO2   103.398000    7.129000  -28.124000 T    1687 GLP     0.6000 ****
5060 TO1   113.026000    7.793000  -30.742000 T    1687 GLP    -0.6000 ****
5061 HO1   122.655000    8.456000  -33.361000 H    1687 GLP     0.4000 ****
5062 TO2   102.594000   14.561000  -28.204000 T    1688 GLP     0.6000 ****
5063 TO1   112.147000   15.917000  -30.830000 T    1688 GLP    -0.6000 ****
5064 HO1   121.700000   17.273000  -33.456000 H    1688 GLP     0.4000 ****
5065 TO2   101.256000   21.915000  -28.284000 T    1689 GLP     0.6000 ****
5066 TO1   110.684000   23.956000  -30.918000 T    1689 GLP    -0.6000 ****
5067 HO1   120.113000   25.997000  -33.552000 H    1689 GLP     0.4000 ****
5068 TO2    99.390000   29.154000  -28.365000 T    1690 GLP     0.6000 ****
5069 TO1   108.645000   31.869000  -31.006000 T    1690 GLP    -0.6000 ****
5070 HO1   117.900000   34.584000  -33.647000 H    1690 GLP     0.4000 ****
5071 TO2    97.008000   36.240000  -28.445000 T    1691 GLP     0.6000 ****
5072 TO1   106.041000   39.615000  -31.094000 T    1691 GLP    -0.6000 ****
5073 HO1   115.074000   42.989000  -33.742000 H    1691 GLP     0.4000 ****
5074 TO2    94.120000   43.135000  -28.525000 T    1692 GLP     0.6000 ****
5075 TO1   102.884000   47.152000  -31.181000 T    1692 GLP    -0.6000 ****
5076 HO1   111.649000   51.169000  -33.838000 H    1692 GLP     0.4000 ****
5077 TO2    90.743000   49.804000  -28.606000 T    1693 GLP     0.6000 ****
5078 TO1    99.192000   54.442000  -31.269000 T    1693 GLP    -0.6000 ****
5079 HO1   107.642000   59.079000  -33.933000 H    1693 GLP     0.4000 ****
5080 TO2    86.893000   56.212000  -28.686000 T    1694 GLP     0.6000 ****
5081 TO1    94.984000   61.446000  -31.357000 T    1694 GLP    -0.6000 ****
5082 HO1   103.075000   66.680000  -34.028000 H    1694 GLP     0.4000 ****
5083 TO2    82.590000   62.325000  -28.766000 T    1695 GLP     0.6000 ****
5084 TO1    90.280000   68.128000  -31.445000 T    1695 GLP    -0.6000 ****
5085 HO1    97.971000   73.932000  -34.124000 H    1695 GLP     0.4000 ****
5086 TO2    77.857000   68.111000  -28.847000 T    1696 GLP     0.6000 ****
5087 TO1    85.107000   74.453000  -31.533000 T    1696 GLP    -0.6000 ****
5088 HO1    92.357000   80.796000  -34.219000 H    1696 GLP     0.4000 ****
5089 TO2    72.719000   73.540000  -28.927000 T    1697 GLP     0.6000 ****
5090 TO1    79.490000   80.388000  -31.621000 T    1697 GLP    -0.6000 ****
5091 HO1    86.261000   87.236000  -34.314000 H    1697 GLP     0.4000 ****
5092 TO2    67.201000   78.584000  -29.007000 T    1698 GLP     0.6000 ****
5093 TO1    73.459000   85.902000  -31.708000 T    1698 GLP    -0.6000 ****
5094 HO1    79.717000   93.220000  -34.410000 H    1698 GLP     0.4000 ****
5095 TO2    61.334000   83.217000  -29.088000 T    1699 GLP     0.6000 ****
5096 TO1    67.045000   90.965000  -31.796000 T    1699 GLP    -0.6000 ****
5097 HO1    72.757000   98.714000  -34.505000 H    1699 GLP     0.4000 ****
5098 TO2    55.147000   87.413000  -29.168000 T    1700 GLP     0.6000 ****
5099 TO1    60.283000   95.552000  -31.884000 T    1700 GLP    -0.6000 ****
5100 HO1    65.418000  103.692000  -34.600000 H    1700 GLP     0.4000 ****
5101 TO2    48.674000   91.150000  -29.248000 T    1701 GLP     0.6000 ****
5102 TO1    53.206000   99.638000  -31.972000 T    1701 GLP    -0.6000 ****
5103 HO1    57.738000  108.126000  -34.696000 H    1701 GLP     0.4000 ****
5104 TO2    41.946000   94.410000  -29.329000 T    1702 GLP     0.6000 ****
5105 TO1    45.852000  103.201000  -32.060000 T    1702 GLP    -0.6000 ****
5106 HO1    49.758000  111.993000  -34.791000 H    1702 GLP     0.4000 ****
5107 TO2    35.001000   97.175000  -29.409000 T    1703 GLP     0.6000 ****
5108 TO1    38.260000  106.224000  -32.148000 T    1703 GLP    -0.6000 ****
5109 HO1    41.520000  115.272000  -34.886000 H    1703 GLP     0.4000 ****
5110 TO2    27.874000   99.430000  -29.490000 T    1704 GLP     0.6000 ****
5111 TO1    30.470000  108.689000  -32.235000 T    1704 GLP    -0.6000 ****
5112 HO1    33.065000  117.948000  -34.981000 H    1704 GLP     0.4000 ****
5113 TO2    20.603000  101.164000  -29.570000 T    1705 GLP     0.6000 ****
5114 TO1    22.521000  110.584000  -32.323000 T    1705 GLP    -0.6000 ****
5115 HO1    24.439000  120.004000  -35.077000 H    1705 GLP     0.4000 ****
5116 TO2    13.225000  102.367000  -29.650000 T    1706 GLP     0.6000 ****
5117 TO1    14.456000  111.899000  -32.411000 T    1706 GLP    -0.6000 ****
5118 HO1    15.688000  121.431000  -35.172000 H    1706 GLP     0.4000 ****
5119 TO2     5.779000  103.032000  -29.731000 T    1707 GLP     0.6000 ****
5120 TO1     6.317000  112.626000  -32.499000 T    1707 GLP    -0.6000 ****
5121 HO1     6.855000  122.220000  -35.267000 H    1707 GLP     0.4000 ****
5122 TO2    -1.695000  103.157000  -29.811000 T    1708 GLP     0.6000 ****
5123 TO1    -1.853000  112.763000  -32.587000 T    1708 GLP    -0.6000 ****
5124 HO1    -2.011000  122.369000  -35.363000 H    1708 GLP     0.4000 ****
5125 TO2    -9.159000  102.740000  -29.891000 T    1709 GLP     0.6000 ****
5126 TO1   -10.012000  112.307000  -32.675000 T    1709 GLP    -0.6000 ****
5127 HO1   -10.865000  121.874000  -35.458000 H    1709 GLP     0.4000 ****
5128 TO2   -16.573000  101.784000  -29.972000 T    1710 GLP     0.6000 ****
5129 TO1   -18.116000  111.262000  -32.763000 T    1710 GLP    -0.6000 ****
5130 HO1   -19.659000  120.740000  -35.553000 H    1710 GLP     0.4000 ****
5131 TO2   -23.898000  100.293000  -30.052000 T    1711 GLP     0.6000 ****
5132 TO1   -26.123000  109.632000  -32.850000 T    1711 GLP    -0.6000 ****
5133 HO1   -28.349000  118.971000  -35.649000 H    1711 GLP     0.4000 ****
5134 TO2   -31.096000   98.275000  -30.132000 T    1712 GLP     0.6000 ****
5135 TO1   -33.992000  107.426000  -32.938000 T    1712 GLP    -0.6000 ****
5136 HO1   -36.887000  116.578000  -35.744000 H    1712 GLP     0.4000 ****
5137 TO2   -38.129000   95.741000  -30.213000 T    1713 GLP     0.6000 ****
5138 TO1   -41.679000  104.656000  -33.026000 T    1713 GLP    -0.6000 ****
5139 HO1   -45.230000  113.571000  -35.839000 H    1713 GLP     0.4000 ****
5140 TO2   -44.959000   92.704000  -30.293000 T    1714 GLP     0.6000 ****
5141 TO1   -49.146000  101.336000  -33.114000 T    1714 GLP    -0.6000 ****
5142 HO1   -53.332000  109.968000  -35.935000 H    1714 GLP     0.4000 ****
5143 TO2   -51.551000   89.179000  -30.373000 T    1715 GLP     0.6000 ****
5144 TO1   -56.352000   97.483000  -33.202000 T    1715 GLP    -0.6000 ****
5145 HO1   -61.152000  105.787000  -36.030000 H    1715 GLP     0.4000 ****
5146 TO2   -57.870000   85.185000  -30.454000 T    1716 GLP     0.6000 ****
5147 TO1   -63.259000   93.118000  -33.290000 T    1716 GLP    -0.6000 ****
5148 HO1   -68.648000  101.050000  -36.125000 H    1716 GLP     0.4000 ****
5149 TO2   -63.883000   80.744000  -30.534000 T    1717 GLP     0.6000 ****
5150 TO1   -69.832000   88.262000  -33.377000 T    1717 GLP    -0.6000 ****
5151 HO1   -75.780000   95.781000  -36.221000 H    1717 GLP     0.4000 ****
5152 TO2   -69.558000   75.878000  -30.614000 T    1718 GLP     0.6000 ****
5153 TO1   -76.035000   82.943000  -33.465000 T    1718 GLP    -0.6000 ****
5154 HO1   -82.512000   90.009000  -36.316000 H    1718 GLP     0.4000 ****
5155 TO2   -74.864000   70.613000  -30.695000 T    1719 GLP     0.6000 ****
5156 TO1   -81.835000   77.188000  -33.553000 T    1719 GLP    -0.6000 ****
5157 HO1   -88.807000   83.763000  -36.411000 H    1719 GLP     0.4000 ****
5158 TO2   -79.774000   64.976000  -30.775000 T    1720 GLP     0.6000 ****
5159 TO1   -87.203000   71.026000  -33.641000 T    1720 GLP    -0.6000 ****
5160 HO1   -94.631000   77.077000  -36.507000 H    1720 GLP     0.4000 ****
5161 TO2   -84.262000   58.998000  -30.856000 T    1721 GLP     0.6000 ****
5162 TO1   -92.109000   64.492000  -33.729000 T    1721 GLP    -0.6000 ****
5163 HO1   -99.955000   69.985000  -36.602000 H    1721 GLP     0.4000 ****
5164 TO2   -88.304000   52.709000  -30.936000 T    1722 GLP     0.6000 ****
5165 TO1   -96.527000   57.618000  -33.817000 T    1722 GLP    -0.6000 ****
5166 HO1  -104.750000   62.526000  -36.697000 H    1722 GLP     0.4000 ****
5167 TO2   -91.879000   46.144000  -31.016000 T    1723 GLP     0.6000 ****
5168 TO1  -100.434000   50.441000  -33.904000 T    1723 GLP    -0.6000 ****
5169 HO1  -108.990000   54.738000  -36.793000 H    1723 GLP     0.4000 ****
5170 TO2   -94.966000   39.336000  -31.097000 T    1724 GLP     0.6000 ****
5171 TO1  -103.809000   42.999000  -33.992000 T    1724 GLP    -0.6000 ****
5172 HO1  -112.652000   46.662000  -36.888000 H    1724 GLP     0.4000 ****
5173 TO2   -97.551000   32.322000  -31.177000 T    1725 GLP     0.6000 ****
5174 TO1  -106.635000   35.332000  -34.080000 T    1725 GLP    -0.6000 ****
5175 HO1  -115.719000   38.342000  -36.983000 H    1725 GLP     0.4000 ****
5176 TO2   -99.619000   25.139000  -31.257000 T    1726 GLP     0.6000 ****
5177 TO1  -108.896000   27.479000  -34.168000 T    1726 GLP    -0.6000 ****
5178 HO1  -118.172000   29.820000  -37.078000 H    1726 GLP     0.4000 ****
5179 TO2  -101.159000   17.824000  -31.338000 T    1727 GLP     0.6000 ****
5180 TO1  -110.579000   19.483000  -34.256000 T    1727 GLP    -0.6000 ****
5181 HO1  -119.999000   21.143000  -37.174000 H    1727 GLP     0.4000 ****
5182 TO2  -102.164000   10.416000  -31.418000 T    1728 GLP     0.6000 ****
5183 TO1  -111.677000   11.386000  -34.344000 T    1728 GLP    -0.6000 ****
5184 HO1  -121.190000   12.356000  -37.269000 H    1728 GLP     0.4000 ****
5185 TO2  -102.626000    2.955000  -31.498000 T    1729 GLP     0.6000 ****
5186 TO1  -112.182000    3.230000  -34.431000 T    1729 GLP    -0.6000 ****
5187 HO1  -121.738000    3.506000  -37.364000 H    1729 GLP     0.4000 ****
5188 TO2  -102.544000   -4.520000  -31.579000 T    1730 GLP     0.6000 ****
5189 TO1  -112.093000   -4.941000  -34.519000 T    1730 GLP    -0.6000 ****
5190 HO1  -121.642000   -5.361000  -37.460000 H    1730 GLP     0.4000 ****
5191 TO2  -101.919000  -11.969000  -31.659000 T    1731 GLP     0.6000 ****
5192 TO1  -111.409000  -13.083000  -34.607000 T    1731 GLP    -0.6000 ****
5193 HO1  -120.899000  -14.198000  -37.555000 H    1731 GLP     0.4000 ****
5194 TO2  -100.752000  -19.352000  -31.739000 T    1732 GLP     0.6000 ****
5195 TO1  -110.134000  -21.155000  -34.695000 T    1732 GLP    -0.6000 ****
5196 HO1  -119.516000  -22.957000  -37.650000 H    1732 GLP     0.4000 ****
5197 TO2   -99.052000  -26.632000  -31.820000 T    1733 GLP     0.6000 ****
5198 TO1  -108.275000  -29.112000  -34.783000 T    1733 GLP    -0.6000 ****
5199 HO1  -117.498000  -31.591000  -37.746000 H    1733 GLP     0.4000 ****
5200 TO2   -96.825000  -33.768000  -31.900000 T    1734 GLP     0.6000 ****
5201 TO1  -105.841000  -36.912000  -34.871000 T    1734 GLP    -0.6000 ****
5202 HO1  -114.857000  -40.056000  -37.841000 H    1734 GLP     0.4000 ****
5203 TO2   -94.085000  -40.722000  -31.980000 T    1735 GLP     0.6000 ****
5204 TO1  -102.845000  -44.514000  -34.958000 T    1735 GLP    -0.6000 ****
5205 HO1  -111.606000  -48.306000  -37.936000 H    1735 GLP     0.4000 ****
5206 TO2   -90.844000  -47.459000  -32.061000 T    1736 GLP     0.6000 ****
5207 TO1   -99.304000  -51.878000  -35.046000 T    1736 GLP    -0.6000 ****
5208 HO1  -107.763000  -56.297000  -38.032000 H    1736 GLP     0.4000 ****
5209 TO2   -87.122000  -53.941000  -32.141000 T    1737 GLP     0.6000 ****
5210 TO1   -95.234000  -58.964000  -35.134000 T    1737 GLP    -0.6000 ****
5211 HO1  -103.347000  -63.987000  -38.127000 H    1737 GLP     0.4000 ****
5212 TO2   -82.937000  -60.135000  -32.222000 T    1738 GLP     0.6000 ****
5213 TO1   -90.659000  -65.735000  -35.222000 T    1738 GLP    -0.6000 ****
5214 HO1   -98.382000  -71.335000  -38.222000 H    1738 GLP     0.4000 ****
5215 TO2   -78.311000  -66.007000  -32.302000 T    1739 GLP     0.6000 ****
5216 TO1   -85.603000  -72.154000  -35.310000 T    1739 GLP    -0.6000 ****
5217 HO1   -92.895000  -78.300000  -38.318000 H    1739 GLP     0.4000 ****
5218 TO2   -73.269000  -71.526000  -32.382000 T    1740 GLP     0.6000 ****
5219 TO1   -80.092000  -78.187000  -35.398000 T    1740 GLP    -0.6000 ****
5220 HO1   -86.914000  -84.847000  -38.413000 H    1740 GLP     0.4000 ****
5221 TO2   -67.838000  -76.663000  -32.463000 T    1741 GLP     0.6000 ****
5222 TO1   -74.155000  -83.801000  -35.485000 T    1741 GLP    -0.6000 ****
5223 HO1   -80.472000  -90.940000  -38.508000 H    1741 GLP     0.4000 ****
5224 TO2   -62.046000  -81.389000  -32.543000 T    1742 GLP     0.6000 ****
5225 TO1   -67.824000  -88.968000  -35.573000 T    1742 GLP    -0.6000 ****
5226 HO1   -73.602000  -96.546000  -38.604000 H    1742 GLP     0.4000 ****
5227 TO2   -55.925000  -85.680000  -32.623000 T    1743 GLP     0.6000 ****
5228 TO1   -61.133000  -93.658000  -35.661000 T    1743 GLP    -0.6000 ****
5229 HO1   -66.341000 -101.636000  -38.699000 H    1743 GLP     0.4000 ****
5230 TO2   -49.507000  -89.512000  -32.704000 T    1744 GLP     0.6000 ****
5231 TO1   -54.117000  -97.848000  -35.749000 T    1744 GLP    -0.6000 ****
5232 HO1   -58.727000 -106.183000  -38.794000 H    1744 GLP     0.4000 ****
5233 TO2   -42.826000  -92.866000  -32.784000 T    1745 GLP     0.6000 ****
5234 TO1   -46.814000 -101.513000  -35.837000 T    1745 GLP    -0.6000 ****
5235 HO1   -50.802000 -110.161000  -38.889000 H    1745 GLP     0.4000 ****
5236 TO2   -35.919000  -95.722000  -32.864000 T    1746 GLP     0.6000 ****
5237 TO1   -39.263000 -104.636000  -35.925000 T    1746 GLP    -0.6000 ****
5238 HO1   -42.608000 -113.549000  -38.985000 H    1746 GLP     0.4000 ****
5239 TO2   -28.820000  -98.066000  -32.945000 T    1747 GLP     0.6000 ****
5240 TO1   -31.504000 -107.198000  -36.012000 T    1747 GLP    -0.6000 ****
5241 HO1   -34.188000 -116.330000  -39.080000 H    1747 GLP     0.4000 ****
5242 TO2   -21.570000  -99.885000  -33.025000 T    1748 GLP     0.6000 ****
5243 TO1   -23.578000 -109.186000  -36.100000 T    1748 GLP    -0.6000 ****
5244 HO1   -25.587000 -118.487000  -39.175000 H    1748 GLP     0.4000 ****
5245 TO2   -14.206000 -101.169000  -33.105000 T    1749 GLP     0.6000 ****
5246 TO1   -15.528000 -110.590000  -36.188000 T    1749 GLP    -0.6000 ****
5247 HO1   -16.851000 -120.010000  -39.271000 H    1749 GLP     0.4000 ****
5248 TO2    -6.767000 -101.911000  -33.186000 T    1750 GLP     0.6000 ****
5249 TO1    -7.397000 -111.401000  -36.276000 T    1750 GLP    -0.6000 ****
5250 HO1    -8.028000 -120.890000  -39.366000 H    1750 GLP     0.4000 ****
5251 TO2     0.705000 -102.107000  -33.266000 T    1751 GLP     0.6000 ****
5252 TO1     0.771000 -111.615000  -36.364000 T    1751 GLP    -0.6000 ****
5253 HO1     0.837000 -121.123000  -39.461000 H    1751 GLP     0.4000 ****
5254 TO2     8.172000 -101.756000  -33.346000 T    1752 GLP     0.6000 ****
5255 TO1     8.933000 -111.231000  -36.452000 T    1752 GLP    -0.6000 ****
5256 HO1     9.694000 -120.706000  -39.557000 H    1752 GLP     0.4000 ****
5257 TO2    15.593000 -100.859000  -33.427000 T    1753 GLP     0.6000 ****
5258 TO1    17.045000 -110.250000  -36.539000 T    1753 GLP    -0.6000 ****
5259 HO1    18.497000 -119.642000  -39.652000 H    1753 GLP     0.4000 ****
5260 TO2    22.929000  -99.421000  -33.507000 T    1754 GLP     0.6000 ****
5261 TO1    25.064000 -108.679000  -36.627000 T    1754 GLP    -0.6000 ****
5262 HO1    27.199000 -117.936000  -39.747000 H    1754 GLP     0.4000 ****
5263 TO2    30.140000  -97.450000  -33.588000 T    1755 GLP     0.6000 ****
5264 TO1    32.946000 -106.524000  -36.715000 T    1755 GLP    -0.6000 ****
5265 HO1    35.753000 -115.598000  -39.843000 H    1755 GLP     0.4000 ****
5266 TO2    37.187000  -94.956000  -33.668000 T    1756 GLP     0.6000 ****
5267 TO1    40.649000 -103.798000  -36.803000 T    1756 GLP    -0.6000 ****
5268 HO1    44.112000 -112.640000  -39.938000 H    1756 GLP     0.4000 ****
5269 TO2    44.032000  -91.952000  -33.748000 T    1757 GLP     0.6000 ****
5270 TO1    48.132000 -100.515000  -36.891000 T    1757 GLP    -0.6000 ****
5271 HO1    52.232000 -109.077000  -40.033000 H    1757 GLP     0.4000 ****
5272 TO2    50.639000  -88.455000  -33.829000 T    1758 GLP     0.6000 ****
5273 TO1    55.354000  -96.692000  -36.979000 T    1758 GLP    -0.6000 ****
5274 HO1    60.069000 -104.929000  -40.129000 H    1758 GLP     0.4000 ****
5275 TO2    56.971000  -84.483000  -33.909000 T    1759 GLP     0.6000 ****
5276 TO1    62.276000  -92.350000  -37.066000 T    1759 GLP    -0.6000 ****
5277 HO1    67.581000 -100.217000  -40.224000 H    1759 GLP     0.4000 ****
5278 TO2    62.996000  -80.058000  -33.989000 T    1760 GLP     0.6000 ****
5279 TO1    68.862000  -87.513000  -37.154000 T    1760 GLP    -0.6000 ****
5280 HO1    74.728000  -94.967000  -40.319000 H    1760 GLP     0.4000 ****
5281 TO2    68.679000  -75.202000  -34.070000 T    1761 GLP     0.6000 ****
5282 TO1    75.074000  -82.205000  -37.242000 T    1761 GLP    -0.6000 ****
5283 HO1    81.470000  -89.208000  -40.415000 H    1761 GLP     0.4000 ****
5284 TO2    73.991000  -69.943000  -34.150000 T    1762 GLP     0.6000 ****
5285 TO1    80.881000  -76.456000  -37.330000 T    1762 GLP    -0.6000 ****
5286 HO1    87.771000  -82.969000  -40.510000 H    1762 GLP     0.4000 ****
5287 TO2    78.903000  -64.308000  -34.230000 T    1763 GLP     0.6000 ****
5288 TO1    86.250000  -70.296000  -37.418000 T    1763 GLP    -0.6000 ****
5289 HO1    93.598000  -76.285000  -40.605000 H    1763 GLP     0.4000 ****
5290 TO2    83.388000  -58.328000  -34.311000 T    1764 GLP     0.6000 ****
5291 TO1    91.153000  -63.759000  -37.506000 T    1764 GLP    -0.6000 ****
5292 HO1    98.918000  -69.191000  -40.701000 H    1764 GLP     0.4000 ****
5293 TO2    87.422000  -52.035000  -34.391000 T    1765 GLP     0.6000 ****
5294 TO1    95.563000  -56.880000  -37.593000 T    1765 GLP    -0.6000 ****
5295 HO1   103.703000  -61.725000  -40.796000 H    1765 GLP     0.4000 ****
5296 TO2    90.983000  -45.462000  -34.471000 T    1766 GLP     0.6000 ****
5297 TO1    99.455000  -49.695000  -37.681000 T    1766 GLP    -0.6000 ****
5298 HO1   107.927000  -53.929000  -40.891000 H    1766 GLP     0.4000 ****
5299 TO2    94.051000  -38.646000  -34.552000 T    1767 GLP     0.6000 ****
5300 TO1   102.809000  -42.244000  -37.769000 T    1767 GLP    -0.6000 ****
5301 HO1   111.567000  -45.843000  -40.986000 H    1767 GLP     0.4000 ****
5302 TO2    96.611000  -31.622000  -34.632000 T    1768 GLP     0.6000 ****
5303 TO1   105.607000  -34.567000  -37.857000 T    1768 GLP    -0.6000 ****
5304 HO1   114.603000  -37.512000  -41.082000 H    1768 GLP     0.4000 ****
5305 TO2    98.647000  -24.430000  -34.712000 T    1769 GLP     0.6000 ****
5306 TO1   107.833000  -26.705000  -37.945000 T    1769 GLP    -0.6000 ****
5307 HO1   117.018000  -28.980000  -41.177000 H    1769 GLP     0.4000 ****
5308 TO2   100.149000  -17.107000  -34.793000 T    1770 GLP     0.6000 ****
5309 TO1   109.474000  -18.700000  -38.033000 T    1770 GLP    -0.6000 ****
5310 HO1   118.800000  -20.293000  -41.272000 H    1770 GLP     0.4000 ****
5311 TO2   101.108000   -9.694000  -34.873000 T    1771 GLP     0.6000 ****
5312 TO1   110.523000  -10.597000  -38.120000 T    1771 GLP    -0.6000 ****
5313 HO1   119.938000  -11.499000  -41.368000 H    1771 GLP     0.4000 ****
5314 TO2   101.520000   -2.230000  -34.954000 T    1772 GLP     0.6000 ****
5315 TO1   110.973000   -2.438000  -38.208000 T    1772 GLP    -0.6000 ****
5316 HO1   120.426000   -2.645000  -41.463000 H    1772 GLP     0.4000 ****
5317 TO2   101.381000    5.244000  -35.034000 T    1773 GLP     0.6000 ****
5318 TO1   110.821000    5.732000  -38.296000 T    1773 GLP    -0.6000 ****
5319 HO1   120.262000    6.220000  -41.558000 H    1773 GLP     0.4000 ****
5320 TO2   100.693000   12.687000  -35.114000 T    1774 GLP     0.6000 ****
5321 TO1   110.069000   13.869000  -38.384000 T    1774 GLP    -0.6000 ****
5322 HO1   119.445000   15.050000  -41.654000 H    1774 GLP     0.4000 ****
5323 TO2    99.458000   20.060000  -35.195000 T    1775 GLP     0.6000 ****
5324 TO1   108.719000   21.928000  -38.472000 T    1775 GLP    -0.6000 ****
5325 HO1   117.981000   23.795000  -41.749000 H    1775 GLP     0.4000 ****
5326 TO2    97.684000   27.321000  -35.275000 T    1776 GLP     0.6000 ****
5327 TO1   106.780000   29.865000  -38.560000 T    1776 GLP    -0.6000 ****
5328 HO1   115.876000   32.409000  -41.844000 H    1776 GLP     0.4000 ****
5329 TO2    95.380000   34.432000  -35.355000 T    1777 GLP     0.6000 ****
5330 TO1   104.262000   37.639000  -38.647000 T    1777 GLP    -0.6000 ****
5331 HO1   113.143000   40.845000  -41.940000 H    1777 GLP     0.4000 ****
5332 TO2    92.559000   41.355000  -35.436000 T    1778 GLP     0.6000 ****
5333 TO1   101.177000   45.205000  -38.735000 T    1778 GLP    -0.6000 ****
5334 HO1   109.796000   49.056000  -42.035000 H    1778 GLP     0.4000 ****
5335 TO2    89.234000   48.050000  -35.516000 T    1779 GLP     0.6000 ****
5336 TO1    97.544000   52.524000  -38.823000 T    1779 GLP    -0.6000 ****
5337 HO1   105.853000   56.998000  -42.130000 H    1779 GLP     0.4000 ****
5338 TO2    85.426000   54.482000  -35.596000 T    1780 GLP     0.6000 ****
5339 TO1    93.380000   59.555000  -38.911000 T    1780 GLP    -0.6000 ****
5340 HO1   101.335000   64.628000  -42.226000 H    1780 GLP     0.4000 ****
5341 TO2    81.153000   60.616000  -35.677000 T    1781 GLP     0.6000 ****
5342 TO1    88.710000   66.260000  -38.999000 T    1781 GLP    -0.6000 ****
5343 HO1    96.267000   71.905000  -42.321000 H    1781 GLP     0.4000 ****
5344 TO2    76.440000   66.418000  -35.757000 T    1782 GLP     0.6000 ****
5345 TO1    83.558000   72.602000  -39.087000 T    1782 GLP    -0.6000 ****
5346 HO1    90.676000   78.787000  -42.416000 H    1782 GLP     0.4000 ****
5347 TO2    71.312000   71.856000  -35.837000 T    1783 GLP     0.6000 ****
5348 TO1    77.952000   78.547000  -39.174000 T    1783 GLP    -0.6000 ****
5349 HO1    84.592000   85.238000  -42.512000 H    1783 GLP     0.4000 ****
5350 TO2    65.796000   76.901000  -35.918000 T    1784 GLP     0.6000 ****
5351 TO1    71.923000   84.062000  -39.262000 T    1784 GLP    -0.6000 ****
5352 HO1    78.049000   91.223000  -42.607000 H    1784 GLP     0.4000 ****
5353 TO2    59.923000   81.525000  -35.998000 T    1785 GLP     0.6000 ****
5354 TO1    65.502000   89.117000  -39.350000 T    1785 GLP    -0.6000 ****
5355 HO1    71.082000   96.708000  -42.702000 H    1785 GLP     0.4000 ****
5356 TO2    53.724000   85.703000  -36.078000 T    1786 GLP     0.6000 ****
5357 TO1    58.727000   93.684000  -39.438000 T    1786 GLP    -0.6000 ****
5358 HO1    63.729000  101.664000  -42.797000 H    1786 GLP     0.4000 ****
5359 TO2    47.234000   89.412000  -36.159000 T    1787 GLP     0.6000 ****
5360 TO1    51.632000   97.738000  -39.526000 T    1787 GLP    -0.6000 ****
5361 HO1    56.030000  106.063000  -42.893000 H    1787 GLP     0.4000 ****
5362 TO2    40.487000   92.631000  -36.239000 T    1788 GLP     0.6000 ****
5363 TO1    44.257000  101.256000  -39.614000 T    1788 GLP    -0.6000 ****
5364 HO1    48.027000  109.882000  -42.988000 H    1788 GLP     0.4000 ****
5365 TO2    33.521000   95.342000  -36.320000 T    1789 GLP     0.6000 ****
5366 TO1    36.643000  104.220000  -39.701000 T    1789 GLP    -0.6000 ****
5367 HO1    39.764000  113.098000  -43.083000 H    1789 GLP     0.4000 ****
5368 TO2    26.374000   97.532000  -36.400000 T    1790 GLP     0.6000 ****
5369 TO1    28.830000  106.614000  -39.789000 T    1790 GLP    -0.6000 ****
5370 HO1    31.286000  115.695000  -43.179000 H    1790 GLP     0.4000 ****
5371 TO2    19.085000   99.186000  -36.480000 T    1791 GLP     0.6000 ****
5372 TO1    20.862000  108.422000  -39.877000 T    1791 GLP    -0.6000 ****
5373 HO1    22.639000  117.658000  -43.274000 H    1791 GLP     0.4000 ****
5374 TO2    11.692000  100.297000  -36.561000 T    1792 GLP     0.6000 ****
5375 TO1    12.781000  109.637000  -39.965000 T    1792 GLP    -0.6000 ****
5376 HO1    13.870000  118.976000  -43.369000 H    1792 GLP     0.4000 ****
5377 TO2     4.239000  100.859000  -36.641000 T    1793 GLP     0.6000 ****
5378 TO1     4.633000  110.250000  -40.053000 T    1793 GLP    -0.6000 ****
5379 HO1     5.028000  119.642000  -43.465000 H    1793 GLP     0.4000 ****
5380 TO2    -3.237000  100.866000  -36.721000 T    1794 GLP     0.6000 ****
5381 TO1    -3.538000  110.259000  -40.141000 T    1794 GLP    -0.6000 ****
5382 HO1    -3.839000  119.651000  -43.560000 H    1794 GLP     0.4000 ****
5383 TO2   -10.692000  100.321000  -36.802000 T    1795 GLP     0.6000 ****
5384 TO1   -11.687000  109.663000  -40.228000 T    1795 GLP    -0.6000 ****
5385 HO1   -12.683000  119.004000  -43.655000 H    1795 GLP     0.4000 ****
5386 TO2   -18.086000   99.225000  -36.882000 T    1796 GLP     0.6000 ****
5387 TO1   -19.770000  108.464000  -40.316000 T    1796 GLP    -0.6000 ****
5388 HO1   -21.454000  117.704000  -43.751000 H    1796 GLP     0.4000 ****
5389 TO2   -25.379000   97.584000  -36.962000 T    1797 GLP     0.6000 ****
5390 TO1   -27.742000  106.671000  -40.404000 T    1797 GLP    -0.6000 ****
5391 HO1   -30.105000  115.758000  -43.846000 H    1797 GLP     0.4000 ****
5392 TO2   -32.530000   95.408000  -37.043000 T    1798 GLP     0.6000 ****
5393 TO1   -35.559000  104.292000  -40.492000 T    1798 GLP    -0.6000 ****
5394 HO1   -38.588000  113.176000  -43.941000 H    1798 GLP     0.4000 ****
5395 TO2   -39.500000   92.707000  -37.123000 T    1799 GLP     0.6000 ****
5396 TO1   -43.178000  101.340000  -40.580000 T    1799 GLP    -0.6000 ****
5397 HO1   -46.856000  109.972000  -44.037000 H    1799 GLP     0.4000 ****
5398 TO2   -46.251000   89.497000  -37.203000 T    1800 GLP     0.6000 ****
5399 TO1   -50.558000   97.831000  -40.668000 T    1800 GLP    -0.6000 ****
5400 HO1   -54.864000  106.165000  -44.132000 H    1800 GLP     0.4000 ****
5401 TO2   -52.745000   85.795000  -37.284000 T    1801 GLP     0.6000 ****
5402 TO1   -57.656000   93.785000  -40.756000 T    1801 GLP    -0.6000 ****
5403 HO1   -62.568000  101.774000  -44.227000 H    1801 GLP     0.4000 ****
5404 TO2   -58.947000   81.622000  -37.364000 T    1802 GLP     0.6000 ****
5405 TO1   -64.435000   89.223000  -40.843000 T    1802 GLP    -0.6000 ****
5406 HO1   -69.924000   96.823000  -44.323000 H    1802 GLP     0.4000 ****
5407 TO2   -64.821000   77.000000  -37.444000 T    1803 GLP     0.6000 ****
5408 TO1   -70.857000   84.170000  -40.931000 T    1803 GLP    -0.6000 ****
5409 HO1   -76.893000   91.341000  -44.418000 H    1803 GLP     0.4000 ****
5410 TO2   -70.337000   71.955000  -37.525000 T    1804 GLP     0.6000 ****
5411 TO1   -76.887000   78.655000  -41.019000 T    1804 GLP    -0.6000 ****
5412 HO1   -83.436000   85.356000  -44.513000 H    1804 GLP     0.4000 ****
5413 TO2   -75.463000   66.514000  -37.605000 T    1805 GLP     0.6000 ****
5414 TO1   -82.490000   72.708000  -41.107000 T    1805 GLP    -0.6000 ****
5415 HO1   -89.517000   78.902000  -44.609000 H    1805 GLP     0.4000 ****
5416 TO2   -80.170000   60.708000  -37.686000 T    1806 GLP     0.6000 ****
5417 TO1   -87.636000   66.361000  -41.195000 T    1806 GLP    -0.6000 ****
5418 HO1   -95.101000   72.014000  -44.704000 H    1806 GLP     0.4000 ****
5419 TO2   -84.434000   54.568000  -37.766000 T    1807 GLP     0.6000 ****
5420 TO1   -92.296000   59.649000  -41.283000 T    1807 GLP    -0.6000 ****
5421 HO1  -100.158000   64.730000  -44.799000 H    1807 GLP     0.4000 ****
5422 TO2   -88.229000   48.128000  -37.846000 T    1808 GLP     0.6000 ****
5423 TO1   -96.444000   52.610000  -41.370000 T    1808 GLP    -0.6000 ****
5424 HO1  -104.660000   57.091000  -44.894000 H    1808 GLP     0.4000 ****
5425 TO2   -91.535000   41.424000  -37.927000 T    1809 GLP     0.6000 ****
5426 TO1  -100.058000   45.281000  -41.458000 T    1809 GLP    -0.6000 ****
5427 HO1  -108.582000   49.138000  -44.990000 H    1809 GLP     0.4000 ****
5428 TO2   -94.333000   34.492000  -38.007000 T    1810 GLP     0.6000 ****
5429 TO1  -103.117000   37.704000  -41.546000 T    1810 GLP    -0.6000 ****
5430 HO1  -111.901000   40.916000  -45.085000 H    1810 GLP     0.4000 ****
5431 TO2   -96.608000   27.372000  -38.087000 T    1811 GLP     0.6000 ****
5432 TO1  -105.604000   29.921000  -41.634000 T    1811 GLP    -0.6000 ****
5433 HO1  -114.600000   32.470000  -45.180000 H    1811 GLP     0.4000 ****
5434 TO2   -98.347000   20.102000  -38.168000 T    1812 GLP     0.6000 ****
5435 TO1  -107.505000   21.974000  -41.722000 T    1812 GLP    -0.6000 ****
5436 HO1  -116.662000   23.846000  -45.276000 H    1812 GLP     0.4000 ****
5437 TO2   -99.540000   12.723000  -38.248000 T    1813 GLP     0.6000 ****
5438 TO1  -108.809000   13.908000  -41.810000 T    1813 GLP    -0.6000 ****
5439 HO1  -118.078000   15.092000  -45.371000 H    1813 GLP     0.4000 ****
5440 TO2  -100.180000    5.275000  -38.328000 T    1814 GLP     0.6000 ****
5441 TO1  -109.509000    5.767000  -41.897000 T    1814 GLP    -0.6000 ****
5442 HO1  -118.837000    6.258000  -45.466000 H    1814 GLP     0.4000 ****
5443 TO2  -100.264000   -2.199000  -38.409000 T    1815 GLP     0.6000 ****
5444 TO1  -109.600000   -2.404000  -41.985000 T    1815 GLP    -0.6000 ****
5445 HO1  -118.937000   -2.609000  -45.562000 H    1815 GLP     0.4000 ****
5446 TO2   -99.791000   -9.659000  -38.489000 T    1816 GLP     0.6000 ****
5447 TO1  -109.083000  -10.559000  -42.073000 T    1816 GLP    -0.6000 ****
5448 HO1  -118.376000  -11.458000  -45.657000 H    1816 GLP     0.4000 ****
5449 TO2   -98.763000  -17.063000  -38.569000 T    1817 GLP     0.6000 ****
5450 TO1  -107.960000  -18.652000  -42.161000 T    1817 GLP    -0.6000 ****
5451 HO1  -117.157000  -20.241000  -45.752000 H    1817 GLP     0.4000 ****
5452 TO2   -97.187000  -24.370000  -38.650000 T    1818 GLP     0.6000 ****
5453 TO1  -106.237000  -26.639000  -42.249000 T    1818 GLP    -0.6000 ****
5454 HO1  -115.286000  -28.909000  -45.848000 H    1818 GLP     0.4000 ****
5455 TO2   -95.070000  -31.539000  -38.730000 T    1819 GLP     0.6000 ****
5456 TO1  -103.922000  -34.476000  -42.337000 T    1819 GLP    -0.6000 ****
5457 HO1  -112.775000  -37.413000  -45.943000 H    1819 GLP     0.4000 ****
5458 TO2   -92.424000  -38.530000  -38.810000 T    1820 GLP     0.6000 ****
5459 TO1  -101.030000  -42.118000  -42.424000 T    1820 GLP    -0.6000 ****
5460 HO1  -109.636000  -45.705000  -46.038000 H    1820 GLP     0.4000 ****
5461 TO2   -89.264000  -45.304000  -38.891000 T    1821 GLP     0.6000 ****
5462 TO1   -97.576000  -49.523000  -42.512000 T    1821 GLP    -0.6000 ****
5463 HO1  -105.888000  -53.741000  -46.134000 H    1821 GLP     0.4000 ****
5464 TO2   -85.607000  -51.823000  -38.971000 T    1822 GLP     0.6000 ****
5465 TO1   -93.578000  -56.649000  -42.600000 T    1822 GLP    -0.6000 ****
5466 HO1  -101.550000  -61.475000  -46.229000 H    1822 GLP     0.4000 ****
5467 TO2   -81.474000  -58.052000  -39.052000 T    1823 GLP     0.6000 ****
5468 TO1   -89.060000  -63.457000  -42.688000 T    1823 GLP    -0.6000 ****
5469 HO1   -96.647000  -68.863000  -46.324000 H    1823 GLP     0.4000 ****
5470 TO2   -76.887000  -63.954000  -39.132000 T    1824 GLP     0.6000 ****
5471 TO1   -84.046000  -69.909000  -42.776000 T    1824 GLP    -0.6000 ****
5472 HO1   -91.206000  -75.864000  -46.420000 H    1824 GLP     0.4000 ****
5473 TO2   -71.872000  -69.497000  -39.212000 T    1825 GLP     0.6000 ****
5474 TO1   -78.564000  -75.968000  -42.864000 T    1825 GLP    -0.6000 ****
5475 HO1   -85.257000  -82.440000  -46.515000 H    1825 GLP     0.4000 ****
5476 TO2   -66.457000  -74.650000  -39.293000 T    1826 GLP     0.6000 ****
5477 TO1   -72.645000  -81.601000  -42.951000 T    1826 GLP    -0.6000 ****
5478 HO1   -78.833000  -88.552000  -46.610000 H    1826 GLP     0.4000 ****
5479 TO2   -60.672000  -79.383000  -39.373000 T    1827 GLP     0.6000 ****
5480 TO1   -66.321000  -86.775000  -43.039000 T    1827 GLP    -0.6000 ****
5481 HO1   -71.971000  -94.167000  -46.706000 H    1827 GLP     0.4000 ****
5482 TO2   -54.549000  -83.671000  -39.453000 T    1828 GLP     0.6000 ****
5483 TO1   -59.628000  -91.462000  -43.127000 T    1828 GLP    -0.6000 ****
5484 HO1   -64.708000  -99.253000  -46.801000 H    1828 GLP     0.4000 ****
5485 TO2   -48.122000  -87.489000  -39.534000 T    1829 GLP     0.6000 ****
5486 TO1   -52.603000  -95.636000  -43.215000 T    1829 GLP    -0.6000 ****
5487 HO1   -57.084000 -103.782000  -46.896000 H    1829 GLP     0.4000 ****
5488 TO2   -41.428000  -90.815000  -39.614000 T    1830 GLP     0.6000 ****
5489 TO1   -45.286000  -99.272000  -43.303000 T    1830 GLP    -0.6000 ****
5490 HO1   -49.144000 -107.728000  -46.991000 H    1830 GLP     0.4000 ****
5491 TO2   -34.504000  -93.631000  -39.694000 T    1831 GLP     0.6000 ****
5492 TO1   -37.717000 -102.350000  -43.391000 T    1831 GLP    -0.6000 ****
5493 HO1   -40.930000 -111.068000  -47.087000 H    1831 GLP     0.4000 ****
5494 TO2   -27.388000  -95.921000  -39.775000 T    1832 GLP     0.6000 ****
5495 TO1   -29.939000 -104.853000  -43.478000 T    1832 GLP    -0.6000 ****
5496 HO1   -32.489000 -113.785000  -47.182000 H    1832 GLP     0.4000 ****
5497 TO2   -20.121000  -97.671000  -39.855000 T    1833 GLP     0.6000 ****
5498 TO1   -21.995000 -106.766000  -43.566000 T    1833 GLP    -0.6000 ****
5499 HO1   -23.869000 -115.861000  -47.277000 H    1833 GLP     0.4000 ****
5500 TO2   -12.744000  -98.872000  -39.935000 T    1834 GLP     0.6000 ****
5501 TO1   -13.930000 -108.079000  -43.654000 T    1834 GLP    -0.6000 ****
5502 HO1   -15.117000 -117.286000  -47.373000 H    1834 GLP     0.4000 ****
5503 TO2    -5.297000  -99.517000  -40.016000 T    1835 GLP     0.6000 ****
5504 TO1    -5.790000 -108.784000  -43.742000 T    1835 GLP    -0.6000 ****
5505 HO1    -6.283000 -118.051000  -47.468000 H    1835 GLP     0.4000 ****
5506 TO2     2.178000  -99.602000  -40.096000 T    1836 GLP     0.6000 ****
5507 TO1     2.381000 -108.876000  -43.830000 T    1836 GLP    -0.6000 ****
5508 HO1     2.583000 -118.151000  -47.563000 H    1836 GLP     0.4000 ****
5509 TO2     9.638000  -99.126000  -40.176000 T    1837 GLP     0.6000 ****
5510 TO1    10.535000 -108.356000  -43.918000 T    1837 GLP    -0.6000 ****
5511 HO1    11.432000 -117.586000  -47.659000 H    1837 GLP     0.4000 ****
5512 TO2    17.041000  -98.092000  -40.257000 T    1838 GLP     0.6000 ****
5513 TO1    18.627000 -107.226000  -44.005000 T    1838 GLP    -0.6000 ****
5514 HO1    20.214000 -116.360000  -47.754000 H    1838 GLP     0.4000 ****
5515 TO2    24.345000  -96.505000  -40.337000 T    1839 GLP     0.6000 ****
5516 TO1    26.612000 -105.491000  -44.093000 T    1839 GLP    -0.6000 ****
5517 HO1    28.879000 -114.477000  -47.849000 H    1839 GLP     0.4000 ****
5518 TO2    31.510000  -94.374000  -40.418000 T    1840 GLP     0.6000 ****
5519 TO1    34.444000 -103.162000  -44.181000 T    1840 GLP    -0.6000 ****
5520 HO1    37.378000 -111.950000  -47.945000 H    1840 GLP     0.4000 ****
5521 TO2    38.495000  -91.712000  -40.498000 T    1841 GLP     0.6000 ****
5522 TO1    42.079000 -100.252000  -44.269000 T    1841 GLP    -0.6000 ****
5523 HO1    45.664000 -108.792000  -48.040000 H    1841 GLP     0.4000 ****
5524 TO2    45.259000  -88.532000  -40.578000 T    1842 GLP     0.6000 ****
5525 TO1    49.474000  -96.776000  -44.357000 T    1842 GLP    -0.6000 ****
5526 HO1    53.688000 -105.020000  -48.135000 H    1842 GLP     0.4000 ****
5527 TO2    51.766000  -84.853000  -40.659000 T    1843 GLP     0.6000 ****
5528 TO1    56.587000  -92.755000  -44.445000 T    1843 GLP    -0.6000 ****
5529 HO1    61.407000 -100.656000  -48.231000 H    1843 GLP     0.4000 ****
5530 TO2    57.978000  -80.696000  -40.739000 T    1844 GLP     0.6000 ****
5531 TO1    63.377000  -88.210000  -44.532000 T    1844 GLP    -0.6000 ****
5532 HO1    68.776000  -95.724000  -48.326000 H    1844 GLP     0.4000 ****
5533 TO2    63.860000  -76.083000  -40.819000 T    1845 GLP     0.6000 ****
5534 TO1    69.807000  -83.168000  -44.620000 T    1845 GLP    -0.6000 ****
5535 HO1    75.753000  -90.252000  -48.421000 H    1845 GLP     0.4000 ****
5536 TO2    69.378000  -71.041000  -40.900000 T    1846 GLP     0.6000 ****
5537 TO1    75.839000  -77.656000  -44.708000 T    1846 GLP    -0.6000 ****
5538 HO1    82.299000  -84.271000  -48.517000 H    1846 GLP     0.4000 ****
5539 TO2    74.502000  -65.598000  -40.980000 T    1847 GLP     0.6000 ****
5540 TO1    81.439000  -71.706000  -44.796000 T    1847 GLP    -0.6000 ****
5541 HO1    88.376000  -77.815000  -48.612000 H    1847 GLP     0.4000 ****
5542 TO2    79.201000  -59.785000  -41.060000 T    1848 GLP     0.6000 ****
5543 TO1    86.576000  -65.352000  -44.884000 T    1848 GLP    -0.6000 ****
5544 HO1    93.951000  -70.919000  -48.707000 H    1848 GLP     0.4000 ****
5545 TO2    83.449000  -53.635000  -41.141000 T    1849 GLP     0.6000 ****
5546 TO1    91.219000  -58.629000  -44.972000 T    1849 GLP    -0.6000 ****
5547 HO1    98.990000  -63.623000  -48.802000 H    1849 GLP     0.4000 ****
5548 TO2    87.222000  -47.182000  -41.221000 T    1850 GLP     0.6000 ****
5549 TO1    95.344000  -51.575000  -45.059000 T    1850 GLP    -0.6000 ****
5550 HO1   103.466000  -55.969000  -48.898000 H    1850 GLP     0.4000 ****
5551 TO2    90.498000  -40.463000  -41.301000 T    1851 GLP     0.6000 ****
5552 TO1    98.925000  -44.231000  -45.147000 T    1851 GLP    -0.6000 ****
5553 HO1   107.352000  -47.999000  -48.993000 H    1851 GLP     0.4000 ****
5554 TO2    93.258000  -33.517000  -41.382000 T    1852 GLP     0.6000 ****
5555 TO1   101.942000  -36.638000  -45.235000 T    1852 GLP    -0.6000 ****
5556 HO1   110.626000  -39.759000  -49.088000 H    1852 GLP     0.4000 ****
5557 TO2    95.487000  -26.382000  -41.462000 T    1853 GLP     0.6000 ****
5558 TO1   104.379000  -28.839000  -45.323000 T    1853 GLP    -0.6000 ****
5559 HO1   113.270000  -31.295000  -49.184000 H    1853 GLP     0.4000 ****
5560 TO2    97.172000  -19.100000  -41.542000 T    1854 GLP     0.6000 ****
5561 TO1   106.220000  -20.878000  -45.411000 T    1854 GLP    -0.6000 ****
5562 HO1   115.269000  -22.657000  -49.279000 H    1854 GLP     0.4000 ****
5563 TO2    98.302000  -11.711000  -41.623000 T    1855 GLP     0.6000 ****
5564 TO1   107.456000  -12.801000  -45.499000 T    1855 GLP    -0.6000 ****
5565 HO1   116.610000  -13.892000  -49.374000 H    1855 GLP     0.4000 ****
5566 TO2    98.872000   -4.258000  -41.703000 T    1856 GLP     0.6000 ****
5567 TO1   108.079000   -4.654000  -45.586000 T    1856 GLP    -0.6000 ****
5568 HO1   117.285000   -5.051000  -49.470000 H    1856 GLP     0.4000 ****
5569 TO2    98.877000    3.217000  -41.784000 T    1857 GLP     0.6000 ****
5570 TO1   108.085000    3.517000  -45.674000 T    1857 GLP    -0.6000 ****
5571 HO1   117.292000    3.816000  -49.565000 H    1857 GLP     0.4000 ****
5572 TO2    98.318000   10.671000  -41.864000 T    1858 GLP     0.6000 ****
5573 TO1   107.474000   11.665000  -45.762000 T    1858 GLP    -0.6000 ****
5574 HO1   116.629000   12.658000  -49.660000 H    1858 GLP     0.4000 ****
5575 TO2    97.198000   18.061000  -41.944000 T    1859 GLP     0.6000 ****
5576 TO1   106.249000   19.743000  -45.850000 T    1859 GLP    -0.6000 ****
5577 HO1   115.300000   21.425000  -49.756000 H    1859 GLP     0.4000 ****
5578 TO2    95.522000   25.346000  -42.025000 T    1860 GLP     0.6000 ****
5579 TO1   104.417000   27.706000  -45.938000 T    1860 GLP    -0.6000 ****
5580 HO1   113.312000   30.066000  -49.851000 H    1860 GLP     0.4000 ****
5581 TO2    93.301000   32.483000  -42.105000 T    1861 GLP     0.6000 ****
5582 TO1   101.988000   35.508000  -46.026000 T    1861 GLP    -0.6000 ****
5583 HO1   110.676000   38.532000  -49.946000 H    1861 GLP     0.4000 ****
5584 TO2    90.546000   39.432000  -42.185000 T    1862 GLP     0.6000 ****
5585 TO1    98.977000   43.103000  -46.113000 T    1862 GLP    -0.6000 ****
5586 HO1   107.408000   46.775000  -50.042000 H    1862 GLP     0.4000 ****
5587 TO2    87.273000   46.152000  -42.266000 T    1863 GLP     0.6000 ****
5588 TO1    95.400000   50.449000  -46.201000 T    1863 GLP    -0.6000 ****
5589 HO1   103.526000   54.747000  -50.137000 H    1863 GLP     0.4000 ****
5590 TO2    83.501000   52.605000  -42.346000 T    1864 GLP     0.6000 ****
5591 TO1    91.277000   57.504000  -46.289000 T    1864 GLP    -0.6000 ****
5592 HO1    99.052000   62.402000  -50.232000 H    1864 GLP     0.4000 ****
5593 TO2    79.252000   58.755000  -42.426000 T    1865 GLP     0.6000 ****
5594 TO1    86.632000   64.226000  -46.377000 T    1865 GLP    -0.6000 ****
5595 HO1    94.011000   69.697000  -50.328000 H    1865 GLP     0.4000 ****
5596 TO2    74.549000   64.565000  -42.507000 T    1866 GLP     0.6000 ****
5597 TO1    81.491000   70.577000  -46.465000 T    1866 GLP    -0.6000 ****
5598 HO1    88.433000   76.589000  -50.423000 H    1866 GLP     0.4000 ****
5599 TO2    69.420000   70.002000  -42.587000 T    1867 GLP     0.6000 ****
5600 TO1    75.884000   76.520000  -46.553000 T    1867 GLP    -0.6000 ****
5601 HO1    82.348000   83.038000  -50.518000 H    1867 GLP     0.4000 ****
5602 TO2    63.893000   75.034000  -42.667000 T    1868 GLP     0.6000 ****
5603 TO1    69.843000   82.021000  -46.640000 T    1868 GLP    -0.6000 ****
5604 HO1    75.792000   89.008000  -50.614000 H    1868 GLP     0.4000 ****
5605 TO2    58.001000   79.634000  -42.748000 T    1869 GLP     0.6000 ****
5606 TO1    63.402000   87.049000  -46.728000 T    1869 GLP    -0.6000 ****
5607 HO1    68.802000   94.464000  -50.709000 H    1869 GLP     0.4000 ****
5608 TO2    51.777000   83.773000  -42.828000 T    1870 GLP     0.6000 ****
5609 TO1    56.598000   91.574000  -46.816000 T    1870 GLP    -0.6000 ****
5610 HO1    61.419000   99.374000  -50.804000 H    1870 GLP     0.4000 ****
5611 TO2    45.257000   87.428000  -42.908000 T    1871 GLP     0.6000 ****
5612 TO1    49.471000   95.569000  -46.904000 T    1871 GLP    -0.6000 ****
5613 HO1    53.685000  103.710000  -50.899000 H    1871 GLP     0.4000 ****
5614 TO2    38.478000   90.578000  -42.989000 T    1872 GLP     0.6000 ****
5615 TO1    42.061000   99.012000  -46.992000 T    1872 GLP    -0.6000 ****
5616 HO1    45.644000  107.447000  -50.995000 H    1872 GLP     0.4000 ****
5617 TO2    31.480000   93.204000  -43.069000 T    1873 GLP     0.6000 ****
5618 TO1    34.411000  101.883000  -47.080000 T    1873 GLP    -0.6000 ****
5619 HO1    37.342000  110.562000  -51.090000 H    1873 GLP     0.4000 ****
5620 TO2    24.302000   95.292000  -43.150000 T    1874 GLP     0.6000 ****
5621 TO1    26.565000  104.165000  -47.167000 T    1874 GLP    -0.6000 ****
5622 HO1    28.828000  113.038000  -51.185000 H    1874 GLP     0.4000 ****
5623 TO2    16.987000   96.828000  -43.230000 T    1875 GLP     0.6000 ****
5624 TO1    18.569000  105.844000  -47.255000 T    1875 GLP    -0.6000 ****
5625 HO1    20.151000  114.860000  -51.281000 H    1875 GLP     0.4000 ****
5626 TO2     9.576000   97.803000  -43.310000 T    1876 GLP     0.6000 ****
5627 TO1    10.468000  106.910000  -47.343000 T    1876 GLP    -0.6000 ****
5628 HO1    11.360000  116.018000  -51.376000 H    1876 GLP     0.4000 ****
5629 TO2     2.113000   98.213000  -43.391000 T    1877 GLP     0.6000 ****
5630 TO1     2.310000  107.358000  -47.431000 T    1877 GLP    -0.6000 ****
5631 HO1     2.506000  116.503000  -51.471000 H    1877 GLP     0.4000 ****
5632 TO2    -5.360000   98.054000  -43.471000 T    1878 GLP     0.6000 ****
5633 TO1    -5.859000  107.184000  -47.519000 T    1878 GLP    -0.6000 ****
5634 HO1    -6.358000  116.315000  -51.567000 H    1878 GLP     0.4000 ****
5635 TO2   -12.799000   97.326000  -43.551000 T    1879 GLP     0.6000 ****
5636 TO1   -13.991000  106.389000  -47.607000 T    1879 GLP    -0.6000 ****
5637 HO1   -15.183000  115.452000  -51.662000 H    1879 GLP     0.4000 ****
5638 TO2   -20.162000   96.035000  -43.632000 T    1880 GLP     0.6000 ****
5639 TO1   -22.039000  104.978000  -47.694000 T    1880 GLP    -0.6000 ****
5640 HO1   -23.916000  113.920000  -51.757000 H    1880 GLP     0.4000 ****
5641 TO2   -27.404000   94.187000  -43.712000 T    1881 GLP     0.6000 ****
5642 TO1   -29.956000  102.958000  -47.782000 T    1881 GLP    -0.6000 ****
5643 HO1   -32.508000  111.728000  -51.853000 H    1881 GLP     0.4000 ****
5644 TO2   -34.485000   91.793000  -43.792000 T    1882 GLP     0.6000 ****
5645 TO1   -37.696000  100.341000  -47.870000 T    1882 GLP    -0.6000 ****
5646 HO1   -40.908000  108.888000  -51.948000 H    1882 GLP     0.4000 ****
5647 TO2   -41.363000   88.866000  -43.873000 T    1883 GLP     0.6000 ****
5648 TO1   -45.215000   97.141000  -47.958000 T    1883 GLP    -0.6000 ****
5649 HO1   -49.066000  105.416000  -52.043000 H    1883 GLP     0.4000 ****
5650 TO2   -47.998000   85.424000  -43.953000 T    1884 GLP     0.6000 ****
5651 TO1   -52.467000   93.379000  -48.046000 T    1884 GLP    -0.6000 ****
5652 HO1   -56.937000  101.333000  -52.139000 H    1884 GLP     0.4000 ****
5653 TO2   -54.351000   81.486000  -44.033000 T    1885 GLP     0.6000 ****
5654 TO1   -59.412000   89.074000  -48.134000 T    1885 GLP    -0.6000 ****
5655 HO1   -64.473000   96.662000  -52.234000 H    1885 GLP     0.4000 ****
5656 TO2   -60.385000   77.075000  -44.114000 T    1886 GLP     0.6000 ****
5657 TO1   -66.008000   84.252000  -48.221000 T    1886 GLP    -0.6000 ****
5658 HO1   -71.631000   91.429000  -52.329000 H    1886 GLP     0.4000 ****
5659 TO2   -66.066000   72.216000  -44.194000 T    1887 GLP     0.6000 ****
5660 TO1   -72.217000   78.941000  -48.309000 T    1887 GLP    -0.6000 ****
5661 HO1   -78.369000   85.665000  -52.425000 H    1887 GLP     0.4000 ****
5662 TO2   -71.358000   66.938000  -44.274000 T    1888 GLP     0.6000 ****
5663 TO1   -78.003000   73.171000  -48.397000 T    1888 GLP    -0.6000 ****
5664 HO1   -84.648000   79.404000  -52.520000 H    1888 GLP     0.4000 ****
5665 TO2   -76.233000   61.271000  -44.355000 T    1889 GLP     0.6000 ****
5666 TO1   -83.331000   66.977000  -48.485000 T    1889 GLP    -0.6000 ****
5667 HO1   -90.430000   72.682000  -52.615000 H    1889 GLP     0.4000 ****
5668 TO2   -80.660000   55.249000  -44.435000 T    1890 GLP     0.6000 ****
5669 TO1   -88.171000   60.394000  -48.573000 T    1890 GLP    -0.6000 ****
5670 HO1   -95.682000   65.538000  -52.711000 H    1890 GLP     0.4000 ****
5671 TO2   -84.614000   48.906000  -44.516000 T    1891 GLP     0.6000 ****
5672 TO1   -92.493000   53.460000  -48.661000 T    1891 GLP    -0.6000 ****
5673 HO1  -100.372000   58.014000  -52.806000 H    1891 GLP     0.4000 ****
5674 TO2   -88.072000   42.279000  -44.596000 T    1892 GLP     0.6000 ****
5675 TO1   -96.273000   46.216000  -48.748000 T    1892 GLP    -0.6000 ****
5676 HO1  -104.474000   50.153000  -52.901000 H    1892 GLP     0.4000 ****
5677 TO2   -91.013000   35.407000  -44.676000 T    1893 GLP     0.6000 ****
5678 TO1   -99.488000   38.704000  -48.836000 T    1893 GLP    -0.6000 ****
5679 HO1  -107.962000   42.001000  -52.996000 H    1893 GLP     0.4000 ****
5680 TO2   -93.419000   28.331000  -44.757000 T    1894 GLP     0.6000 ****
5681 TO1  -102.118000   30.969000  -48.924000 T    1894 GLP    -0.6000 ****
5682 HO1  -110.817000   33.607000  -53.092000 H    1894 GLP     0.4000 ****
5683 TO2   -95.277000   21.091000  -44.837000 T    1895 GLP     0.6000 ****
5684 TO1  -104.149000   23.055000  -49.012000 T    1895 GLP    -0.6000 ****
5685 HO1  -113.021000   25.018000  -53.187000 H    1895 GLP     0.4000 ****
5686 TO2   -96.576000   13.730000  -44.917000 T    1896 GLP     0.6000 ****
5687 TO1  -105.569000   15.008000  -49.100000 T    1896 GLP    -0.6000 ****
5688 HO1  -114.562000   16.287000  -53.282000 H    1896 GLP     0.4000 ****
5689 TO2   -97.307000    6.291000  -44.998000 T    1897 GLP     0.6000 ****
5690 TO1  -106.368000    6.877000  -49.188000 T    1897 GLP    -0.6000 ****
5691 HO1  -115.429000    7.462000  -53.378000 H    1897 GLP     0.4000 ****
5692 TO2   -97.466000   -1.182000  -45.078000 T    1898 GLP     0.6000 ****
5693 TO1  -106.541000   -1.292000  -49.276000 T    1898 GLP    -0.6000 ****
5694 HO1  -115.617000   -1.402000  -53.473000 H    1898 GLP     0.4000 ****
5695 TO2   -97.051000   -8.645000  -45.158000 T    1899 GLP     0.6000 ****
5696 TO1  -106.088000   -9.450000  -49.363000 T    1899 GLP    -0.6000 ****
5697 HO1  -115.126000  -10.255000  -53.568000 H    1899 GLP     0.4000 ****
5698 TO2   -96.066000  -16.055000  -45.239000 T    1900 GLP     0.6000 ****
5699 TO1  -105.011000  -17.550000  -49.451000 T    1900 GLP    -0.6000 ****
5700 HO1  -113.957000  -19.045000  -53.664000 H    1900 GLP     0.4000 ****
5701 TO2   -94.515000  -23.367000  -45.319000 T    1901 GLP     0.6000 ****
5702 TO1  -103.316000  -25.542000  -49.539000 T    1901 GLP    -0.6000 ****
5703 HO1  -112.117000  -27.718000  -53.759000 H    1901 GLP     0.4000 ****
5704 TO2   -92.408000  -30.538000  -45.399000 T    1902 GLP     0.6000 ****
5705 TO1  -101.013000  -33.382000  -49.627000 T    1902 GLP    -0.6000 ****
5706 HO1  -109.618000  -36.225000  -53.854000 H    1902 GLP     0.4000 ****
5707 TO2   -89.757000  -37.527000  -45.480000 T    1903 GLP     0.6000 ****
5708 TO1   -98.115000  -41.021000  -49.715000 T    1903 GLP    -0.6000 ****
5709 HO1  -106.473000  -44.515000  -53.950000 H    1903 GLP     0.4000 ****
5710 TO2   -86.577000  -44.291000  -45.560000 T    1904 GLP     0.6000 ****
5711 TO1   -94.639000  -48.415000  -49.803000 T    1904 GLP    -0.6000 ****
5712 HO1  -102.700000  -52.540000  -54.045000 H    1904 GLP     0.4000 ****
5713 TO2   -82.887000  -50.791000  -45.640000 T    1905 GLP     0.6000 ****
5714 TO1   -90.605000  -55.521000  -49.890000 T    1905 GLP    -0.6000 ****
5715 HO1   -98.323000  -60.250000  -54.140000 H    1905 GLP     0.4000 ****
5716 TO2   -78.708000  -56.988000  -45.721000 T    1906 GLP     0.6000 ****
5717 TO1   -86.037000  -62.295000  -49.978000 T    1906 GLP    -0.6000 ****
5718 HO1   -93.366000  -67.602000  -54.236000 H    1906 GLP     0.4000 ****
5719 TO2   -74.065000  -62.846000  -45.801000 T    1907 GLP     0.6000 ****
5720 TO1   -80.961000  -68.698000  -50.066000 T    1907 GLP    -0.6000 ****
5721 HO1   -87.858000  -74.550000  -54.331000 H    1907 GLP     0.4000 ****
5722 TO2   -68.985000  -68.329000  -45.882000 T    1908 GLP     0.6000 ****
5723 TO1   -75.409000  -74.692000  -50.154000 T    1908 GLP    -0.6000 ****
5724 HO1   -81.832000  -81.055000  -54.426000 H    1908 GLP     0.4000 ****
5725 TO2   -63.499000  -73.406000  -45.962000 T    1909 GLP     0.6000 ****
5726 TO1   -69.411000  -80.241000  -50.242000 T    1909 GLP    -0.6000 ****
5727 HO1   -75.324000  -87.076000  -54.522000 H    1909 GLP     0.4000 ****
5728 TO2   -57.638000  -78.045000  -46.042000 T    1910 GLP     0.6000 ****
5729 TO1   -63.005000  -85.312000  -50.330000 T    1910 GLP    -0.6000 ****
5730 HO1   -68.372000  -92.579000  -54.617000 H    1910 GLP     0.4000 ****
5731 TO2   -51.437000  -82.219000  -46.123000 T    1911 GLP     0.6000 ****
5732 TO1   -56.227000  -89.875000  -50.417000 T    1911 GLP    -0.6000 ****
5733 HO1   -61.017000  -97.530000  -54.712000 H    1911 GLP     0.4000 ****
5734 TO2   -44.933000  -85.902000  -46.203000 T    1912 GLP     0.6000 ****
5735 TO1   -49.118000  -93.901000  -50.505000 T    1912 GLP    -0.6000 ****
5736 HO1   -53.302000 -101.900000  -54.807000 H    1912 GLP     0.4000 ****
5737 TO2   -38.165000  -89.074000  -46.283000 T    1913 GLP     0.6000 ****
5738 TO1   -41.719000  -97.369000  -50.593000 T    1913 GLP    -0.6000 ****
5739 HO1   -45.273000 -105.663000  -54.903000 H    1913 GLP     0.4000 ****
5740 TO2   -31.173000  -91.715000  -46.364000 T    1914 GLP     0.6000 ****
5741 TO1   -34.075000 -100.255000  -50.681000 T    1914 GLP    -0.6000 ****
5742 HO1   -36.978000 -108.795000  -54.998000 H    1914 GLP     0.4000 ****
5743 TO2   -23.997000  -93.809000  -46.444000 T    1915 GLP     0.6000 ****
5744 TO1   -26.232000 -102.544000  -50.769000 T    1915 GLP    -0.6000 ****
5745 HO1   -28.466000 -111.279000  -55.093000 H    1915 GLP     0.4000 ****
5746 TO2   -16.682000  -95.342000  -46.524000 T    1916 GLP     0.6000 ****
5747 TO1   -18.235000 -104.220000  -50.857000 T    1916 GLP    -0.6000 ****
5748 HO1   -19.789000 -113.098000  -55.189000 H    1916 GLP     0.4000 ****
5749 TO2    -9.270000  -96.307000  -46.605000 T    1917 GLP     0.6000 ****
5750 TO1   -10.133000 -105.275000  -50.944000 T    1917 GLP    -0.6000 ****
5751 HO1   -10.996000 -114.243000  -55.284000 H    1917 GLP     0.4000 ****
5752 TO2    -1.805000  -96.697000  -46.685000 T    1918 GLP     0.6000 ****
5753 TO1    -1.974000 -105.701000  -51.032000 T    1918 GLP    -0.6000 ****
5754 HO1    -2.142000 -114.705000  -55.379000 H    1918 GLP     0.4000 ****
5755 TO2     5.667000  -96.508000  -46.765000 T    1919 GLP     0.6000 ****
5756 TO1     6.194000 -105.495000  -51.120000 T    1919 GLP    -0.6000 ****
5757 HO1     6.722000 -114.481000  -55.475000 H    1919 GLP     0.4000 ****
5758 TO2    13.102000  -95.743000  -46.846000 T    1920 GLP     0.6000 ****
5759 TO1    14.322000 -104.659000  -51.208000 T    1920 GLP    -0.6000 ****
5760 HO1    15.542000 -113.574000  -55.570000 H    1920 GLP     0.4000 ****
5761 TO2    20.456000  -94.406000  -46.926000 T    1921 GLP     0.6000 ****
5762 TO1    22.361000 -103.197000  -51.296000 T    1921 GLP    -0.6000 ****
5763 HO1    24.265000 -111.987000  -55.665000 H    1921 GLP     0.4000 ****
5764 TO2    27.684000  -92.504000  -47.006000 T    1922 GLP     0.6000 ****
5765 TO1    30.262000 -101.117000  -51.384000 T    1922 GLP    -0.6000 ****
5766 HO1    32.840000 -109.731000  -55.761000 H    1922 GLP     0.4000 ****
5767 TO2    34.744000  -90.048000  -47.087000 T    1923 GLP     0.6000 ****
5768 TO1    37.979000  -98.433000  -51.471000 T    1923 GLP    -0.6000 ****
5769 HO1    41.214000 -106.818000  -55.856000 H    1923 GLP     0.4000 ****
5770 TO2    41.592000  -87.053000  -47.167000 T    1924 GLP     0.6000 ****
5771 TO1    45.465000  -95.160000  -51.559000 T    1924 GLP    -0.6000 ****
5772 HO1    49.338000 -103.266000  -55.951000 H    1924 GLP     0.4000 ****
5773 TO2    48.188000  -83.538000  -47.248000 T    1925 GLP     0.6000 ****
5774 TO1    52.675000  -91.316000  -51.647000 T    1925 GLP    -0.6000 ****
5775 HO1    57.163000  -99.095000  -56.047000 H    1925 GLP     0.4000 ****
5776 TO2    54.492000  -79.521000  -47.328000 T    1926 GLP     0.6000 ****
5777 TO1    59.566000  -86.926000  -51.735000 T    1926 GLP    -0.6000 ****
5778 HO1    64.640000  -94.331000  -56.142000 H    1926 GLP     0.4000 ****
5779 TO2    60.466000  -75.029000  -47.408000 T    1927 GLP     0.6000 ****
5780 TO1    66.096000  -82.015000  -51.823000 T    1927 GLP    -0.6000 ****
5781 HO1    71.727000  -89.002000  -56.237000 H    1927 GLP     0.4000 ****
5782 TO2    66.073000  -70.087000  -47.489000 T    1928 GLP     0.6000 ****
5783 TO1    72.226000  -76.613000  -51.911000 T    1928 GLP    -0.6000 ****
5784 HO1    78.378000  -83.139000  -56.333000 H    1928 GLP     0.4000 ****
5785 TO2    71.280000  -64.725000  -47.569000 T    1929 GLP     0.6000 ****
5786 TO1    77.918000  -70.751000  -51.998000 T    1929 GLP    -0.6000 ****
5787 HO1    84.555000  -76.778000  -56.428000 H    1929 GLP     0.4000 ****
5788 TO2    76.056000  -58.975000  -47.649000 T    1930 GLP     0.6000 ****
5789 TO1    83.138000  -64.466000  -52.086000 T    1930 GLP    -0.6000 ****
5790 HO1    90.220000  -69.958000  -56.523000 H    1930 GLP     0.4000 ****
5791 TO2    80.371000  -52.871000  -47.730000 T    1931 GLP     0.6000 ****
5792 TO1    87.855000  -57.795000  -52.174000 T    1931 GLP    -0.6000 ****
5793 HO1    95.339000  -62.718000  -56.619000 H    1931 GLP     0.4000 ****
5794 TO2    84.199000  -46.451000  -47.810000 T    1932 GLP     0.6000 ****
5795 TO1    92.039000  -50.777000  -52.262000 T    1932 GLP    -0.6000 ****
5796 HO1    99.879000  -55.102000  -56.714000 H    1932 GLP     0.4000 ****
5797 TO2    87.516000  -39.754000  -47.890000 T    1933 GLP     0.6000 ****
5798 TO1    95.666000  -43.455000  -52.350000 T    1933 GLP    -0.6000 ****
5799 HO1   103.815000  -47.157000  -56.809000 H    1933 GLP     0.4000 ****
5800 TO2    90.304000  -32.818000  -47.971000 T    1934 GLP     0.6000 ****
5801 TO1    98.712000  -35.874000  -52.438000 T    1934 GLP    -0.6000 ****
5802 HO1   107.121000  -38.930000  -56.904000 H    1934 GLP     0.4000 ****
5803 TO2    92.543000  -25.687000  -48.051000 T    1935 GLP     0.6000 ****
5804 TO1   101.160000  -28.079000  -52.525000 T    1935 GLP    -0.6000 ****
5805 HO1   109.778000  -30.471000  -57.000000 H    1935 GLP     0.4000 ****
5806 TO2    94.221000  -18.404000  -48.131000 T    1936 GLP     0.6000 ****
5807 TO1   102.995000  -20.117000  -52.613000 T    1936 GLP    -0.6000 ****
5808 HO1   111.768000  -21.831000  -57.095000 H    1936 GLP     0.4000 ****
5809 TO2    95.328000  -11.011000  -48.212000 T    1937 GLP     0.6000 ****
5810 TO1   104.204000  -12.037000  -52.701000 T    1937 GLP    -0.6000 ****
5811 HO1   113.081000  -13.062000  -57.190000 H    1937 GLP     0.4000 ****
5812 TO2    95.855000   -3.556000  -48.292000 T    1938 GLP     0.6000 ****
5813 TO1   104.781000   -3.887000  -52.789000 T    1938 GLP    -0.6000 ****
5814 HO1   113.707000   -4.218000  -57.286000 H    1938 GLP     0.4000 ****
5815 TO2    95.800000    3.919000  -48.372000 T    1939 GLP     0.6000 ****
5816 TO1   104.721000    4.283000  -52.877000 T    1939 GLP    -0.6000 ****
5817 HO1   113.642000    4.648000  -57.381000 H    1939 GLP     0.4000 ****
5818 TO2    95.164000   11.366000  -48.453000 T    1940 GLP     0.6000 ****
5819 TO1   104.025000   12.424000  -52.965000 T    1940 GLP    -0.6000 ****
5820 HO1   112.886000   13.483000  -57.476000 H    1940 GLP     0.4000 ****
5821 TO2    93.948000   18.741000  -48.533000 T    1941 GLP     0.6000 ****
5822 TO1   102.696000   20.486000  -53.052000 T    1941 GLP    -0.6000 ****
5823 HO1   111.445000   22.231000  -57.572000 H    1941 GLP     0.4000 ****
5824 TO2    92.162000   25.999000  -48.614000 T    1942 GLP     0.6000 ****
5825 TO1   100.743000   28.419000  -53.140000 T    1942 GLP    -0.6000 ****
5826 HO1   109.325000   30.840000  -57.667000 H    1942 GLP     0.4000 ****
5827 TO2    89.814000   33.095000  -48.694000 T    1943 GLP     0.6000 ****
5828 TO1    98.178000   36.176000  -53.228000 T    1943 GLP    -0.6000 ****
5829 HO1   106.541000   39.258000  -57.762000 H    1943 GLP     0.4000 ****
5830 TO2    86.920000   39.986000  -48.774000 T    1944 GLP     0.6000 ****
5831 TO1    95.014000   43.710000  -53.316000 T    1944 GLP    -0.6000 ****
5832 HO1   103.108000   47.433000  -57.858000 H    1944 GLP     0.4000 ****
5833 TO2    83.497000   46.631000  -48.855000 T    1945 GLP     0.6000 ****
5834 TO1    91.272000   50.973000  -53.404000 T    1945 GLP    -0.6000 ****
5835 HO1    99.047000   55.315000  -57.953000 H    1945 GLP     0.4000 ****
5836 TO2    79.566000   52.987000  -48.935000 T    1946 GLP     0.6000 ****
5837 TO1    86.974000   57.921000  -53.492000 T    1946 GLP    -0.6000 ****
5838 HO1    94.383000   62.855000  -58.048000 H    1946 GLP     0.4000 ****
5839 TO2    75.149000   59.018000  -49.015000 T    1947 GLP     0.6000 ****
5840 TO1    82.147000   64.513000  -53.579000 T    1947 GLP    -0.6000 ****
5841 HO1    89.145000   70.009000  -58.144000 H    1947 GLP     0.4000 ****
5842 TO2    70.275000   64.684000  -49.096000 T    1948 GLP     0.6000 ****
5843 TO1    76.819000   70.707000  -53.667000 T    1948 GLP    -0.6000 ****
5844 HO1    83.363000   76.730000  -58.239000 H    1948 GLP     0.4000 ****
5845 TO2    64.973000   69.952000  -49.176000 T    1949 GLP     0.6000 ****
5846 TO1    71.023000   76.466000  -53.755000 T    1949 GLP    -0.6000 ****
5847 HO1    77.073000   82.979000  -58.334000 H    1949 GLP     0.4000 ****
5848 TO2    59.274000   74.789000  -49.256000 T    1950 GLP     0.6000 ****
5849 TO1    64.794000   81.753000  -53.843000 T    1950 GLP    -0.6000 ****
5850 HO1    70.313000   88.717000  -58.430000 H    1950 GLP     0.4000 ****
5851 TO2    53.215000   79.165000  -49.337000 T    1951 GLP     0.6000 ****
5852 TO1    58.170000   86.536000  -53.931000 T    1951 GLP    -0.6000 ****
5853 HO1    63.125000   93.908000  -58.525000 H    1951 GLP     0.4000 ****
5854 TO2    46.831000   83.053000  -49.417000 T    1952 GLP     0.6000 ****
5855 TO1    51.192000   90.786000  -54.019000 T    1952 GLP    -0.6000 ****
5856 HO1    55.553000   98.520000  -58.620000 H    1952 GLP     0.4000 ****
5857 TO2    40.163000   86.429000  -49.497000 T    1953 GLP     0.6000 ****
5858 TO1    43.903000   94.477000  -54.106000 T    1953 GLP    -0.6000 ****
5859 HO1    47.642000  102.525000  -58.715000 H    1953 GLP     0.4000 ****
5860 TO2    33.250000   89.272000  -49.578000 T    1954 GLP     0.6000 ****
5861 TO1    36.346000   97.584000  -54.194000 T    1954 GLP    -0.6000 ****
5862 HO1    39.442000  105.897000  -58.811000 H    1954 GLP     0.4000 ****
5863 TO2    26.136000   91.564000  -49.658000 T    1955 GLP     0.6000 ****
5864 TO1    28.570000  100.090000  -54.282000 T    1955 GLP    -0.6000 ****
5865 HO1    31.003000  108.616000  -58.906000 H    1955 GLP     0.4000 ****
5866 TO2    18.864000   93.291000  -49.738000 T    1956 GLP     0.6000 ****
5867 TO1    20.620000  101.978000  -54.370000 T    1956 GLP    -0.6000 ****
5868 HO1    22.377000  110.665000  -59.001000 H    1956 GLP     0.4000 ****
5869 TO2    11.479000   94.442000  -49.819000 T    1957 GLP     0.6000 ****
5870 TO1    12.548000  103.236000  -54.458000 T    1957 GLP    -0.6000 ****
5871 HO1    13.616000  112.030000  -59.097000 H    1957 GLP     0.4000 ****
5872 TO2     4.026000   95.010000  -49.899000 T    1958 GLP     0.6000 ****
5873 TO1     4.401000  103.857000  -54.546000 T    1958 GLP    -0.6000 ****
5874 HO1     4.776000  112.704000  -59.192000 H    1958 GLP     0.4000 ****
5875 TO2    -3.448000   94.990000  -49.980000 T    1959 GLP     0.6000 ****
5876 TO1    -3.769000  103.835000  -54.633000 T    1959 GLP    -0.6000 ****
5877 HO1    -4.091000  112.681000  -59.287000 H    1959 GLP     0.4000 ****
5878 TO2   -10.898000   94.383000  -50.060000 T    1960 GLP     0.6000 ****
5879 TO1   -11.913000  103.172000  -54.721000 T    1960 GLP    -0.6000 ****
5880 HO1   -12.928000  111.961000  -59.383000 H    1960 GLP     0.4000 ****
5881 TO2   -18.277000   93.193000  -50.140000 T    1961 GLP     0.6000 ****
5882 TO1   -19.979000  101.871000  -54.809000 T    1961 GLP    -0.6000 ****
5883 HO1   -21.681000  110.548000  -59.478000 H    1961 GLP     0.4000 ****
5884 TO2   -25.539000   91.425000  -50.221000 T    1962 GLP     0.6000 ****
5885 TO1   -27.917000   99.939000  -54.897000 T    1962 GLP    -0.6000 ****
5886 HO1   -30.296000  108.452000  -59.573000 H    1962 GLP     0.4000 ****
5887 TO2   -32.640000   89.092000  -50.301000 T    1963 GLP     0.6000 ****
5888 TO1   -35.679000   97.388000  -54.985000 T    1963 GLP    -0.6000 ****
5889 HO1   -38.719000  105.684000  -59.669000 H    1963 GLP     0.4000 ****
5890 TO2   -39.535000   86.207000  -50.381000 T    1964 GLP     0.6000 ****
5891 TO1   -43.216000   94.235000  -55.073000 T    1964 GLP    -0.6000 ****
5892 HO1   -46.898000  102.262000  -59.764000 H    1964 GLP     0.4000 ****
5893 TO2   -46.181000   82.788000  -50.462000 T    1965 GLP     0.6000 ****
5894 TO1   -50.482000   90.497000  -55.160000 T    1965 GLP    -0.6000 ****
5895 HO1   -54.782000   98.206000  -59.859000 H    1965 GLP     0.4000 ****
5896 TO2   -52.538000   78.856000  -50.542000 T    1966 GLP     0.6000 ****
5897 TO1   -57.430000   86.199000  -55.248000 T    1966 GLP    -0.6000 ****
5898 HO1   -62.322000   93.542000  -59.955000 H    1966 GLP     0.4000 ****
5899 TO2   -58.564000   74.435000  -50.622000 T    1967 GLP     0.6000 ****
5900 TO1   -64.018000   81.366000  -55.336000 T    1967 GLP    -0.6000 ****
5901 HO1   -69.471000   88.297000  -60.050000 H    1967 GLP     0.4000 ****
5902 TO2   -64.224000   69.552000  -50.703000 T    1968 GLP     0.6000 ****
5903 TO1   -70.204000   76.029000  -55.424000 T    1968 GLP    -0.6000 ****
5904 HO1   -76.184000   82.505000  -60.145000 H    1968 GLP     0.4000 ****
5905 TO2   -69.480000   64.239000  -50.783000 T    1969 GLP     0.6000 ****
5906 TO1   -75.950000   70.220000  -55.512000 T    1969 GLP    -0.6000 ****
5907 HO1   -82.419000   76.202000  -60.241000 H    1969 GLP     0.4000 ****
5908 TO2   -74.300000   58.527000  -50.863000 T    1970 GLP     0.6000 ****
5909 TO1   -81.219000   63.976000  -55.600000 T    1970 GLP    -0.6000 ****
5910 HO1   -88.138000   69.426000  -60.336000 H    1970 GLP     0.4000 ****
5911 TO2   -78.655000   52.452000  -50.944000 T    1971 GLP     0.6000 ****
5912 TO1   -85.979000   57.336000  -55.687000 T    1971 GLP    -0.6000 ****
5913 HO1   -93.303000   62.220000  -60.431000 H    1971 GLP     0.4000 ****
5914 TO2   -82.515000   46.052000  -51.024000 T    1972 GLP     0.6000 ****
5915 TO1   -90.199000   50.340000  -55.775000 T    1972 GLP    -0.6000 ****
5916 HO1   -97.882000   54.628000  -60.527000 H    1972 GLP     0.4000 ****
5917 TO2   -85.858000   39.366000  -51.104000 T    1973 GLP     0.6000 ****
5918 TO1   -93.853000   43.032000  -55.863000 T    1973 GLP    -0.6000 ****
5919 HO1  -101.848000   46.698000  -60.622000 H    1973 GLP     0.4000 ****
5920 TO2   -88.662000   32.438000  -51.185000 T    1974 GLP     0.6000 ****
5921 TO1   -96.917000   35.458000  -55.951000 T    1974 GLP    -0.6000 ****
5922 HO1  -105.173000   38.479000  -60.717000 H    1974 GLP     0.4000 ****
5923 TO2   -90.908000   25.309000  -51.265000 T    1975 GLP     0.6000 ****
5924 TO1   -99.373000   27.666000  -56.039000 T    1975 GLP    -0.6000 ****
5925 HO1  -107.838000   30.023000  -60.812000 H    1975 GLP     0.4000 ****
5926 TO2   -92.583000   18.025000  -51.346000 T    1976 GLP     0.6000 ****
5927 TO1  -101.205000   19.704000  -56.127000 T    1976 GLP    -0.6000 ****
5928 HO1  -109.826000   21.382000  -60.908000 H    1976 GLP     0.4000 ****
5929 TO2   -93.677000   10.631000  -51.426000 T    1977 GLP     0.6000 ****
5930 TO1  -102.400000   11.621000  -56.214000 T    1977 GLP    -0.6000 ****
5931 HO1  -111.122000   12.611000  -61.003000 H    1977 GLP     0.4000 ****
5932 TO2   -94.181000    3.174000  -51.506000 T    1978 GLP     0.6000 ****
5933 TO1  -102.951000    3.470000  -56.302000 T    1978 GLP    -0.6000 ****
5934 HO1  -111.720000    3.765000  -61.098000 H    1978 GLP     0.4000 ****
5935 TO2   -94.092000   -4.299000  -51.587000 T    1979 GLP     0.6000 ****
5936 TO1  -102.854000   -4.700000  -56.390000 T    1979 GLP    -0.6000 ****
5937 HO1  -111.615000   -5.100000  -61.194000 H    1979 GLP     0.4000 ****
5938 TO2   -93.411000  -11.743000  -51.667000 T    1980 GLP     0.6000 ****
5939 TO1  -102.109000  -12.836000  -56.478000 T    1980 GLP    -0.6000 ****
5940 HO1  -110.807000  -13.929000  -61.289000 H    1980 GLP     0.4000 ****
5941 TO2   -92.142000  -19.108000  -51.747000 T    1981 GLP     0.6000 ****
5942 TO1  -100.721000  -20.887000  -56.566000 T    1981 GLP    -0.6000 ****
5943 HO1  -109.301000  -22.667000  -61.384000 H    1981 GLP     0.4000 ****
5944 TO2   -90.291000  -26.350000  -51.828000 T    1982 GLP     0.6000 ****
5945 TO1   -98.699000  -28.803000  -56.654000 T    1982 GLP    -0.6000 ****
5946 HO1  -107.107000  -31.257000  -61.480000 H    1982 GLP     0.4000 ****
5947 TO2   -87.872000  -33.422000  -51.908000 T    1983 GLP     0.6000 ****
5948 TO1   -96.055000  -36.534000  -56.741000 T    1983 GLP    -0.6000 ****
5949 HO1  -104.237000  -39.646000  -61.575000 H    1983 GLP     0.4000 ****
5950 TO2   -84.899000  -40.279000  -51.988000 T    1984 GLP     0.6000 ****
5951 TO1   -92.804000  -44.030000  -56.829000 T    1984 GLP    -0.6000 ****
5952 HO1  -100.710000  -47.780000  -61.670000 H    1984 GLP     0.4000 ****
5953 TO2   -81.390000  -46.878000  -52.069000 T    1985 GLP     0.6000 ****
5954 TO1   -88.968000  -51.243000  -56.917000 T    1985 GLP    -0.6000 ****
5955 HO1   -96.547000  -55.608000  -61.766000 H    1985 GLP     0.4000 ****
5956 TO2   -77.367000  -53.177000  -52.149000 T    1986 GLP     0.6000 ****
5957 TO1   -84.571000  -58.129000  -57.005000 T    1986 GLP    -0.6000 ****
5958 HO1   -91.775000  -63.081000  -61.861000 H    1986 GLP     0.4000 ****
5959 TO2   -72.856000  -59.137000  -52.229000 T    1987 GLP     0.6000 ****
5960 TO1   -79.640000  -64.643000  -57.093000 T    1987 GLP    -0.6000 ****
5961 HO1   -86.424000  -70.150000  -61.956000 H    1987 GLP     0.4000 ****
5962 TO2   -67.884000  -64.718000  -52.310000 T    1988 GLP     0.6000 ****
5963 TO1   -74.205000  -70.744000  -57.181000 T    1988 GLP    -0.6000 ****
5964 HO1   -80.527000  -76.770000  -62.052000 H    1988 GLP     0.4000 ****
5965 TO2   -62.484000  -69.885000  -52.390000 T    1989 GLP     0.6000 ****
5966 TO1   -68.303000  -76.393000  -57.269000 T    1989 GLP    -0.6000 ****
5967 HO1   -74.121000  -82.900000  -62.147000 H    1989 GLP     0.4000 ****
5968 TO2   -56.690000  -74.606000  -52.470000 T    1990 GLP     0.6000 ****
5969 TO1   -61.969000  -81.553000  -57.356000 T    1990 GLP    -0.6000 ****
5970 HO1   -67.247000  -88.500000  -62.242000 H    1990 GLP     0.4000 ****
5971 TO2   -50.537000  -78.850000  -52.551000 T    1991 GLP     0.6000 ****
5972 TO1   -55.243000  -86.192000  -57.444000 T    1991 GLP    -0.6000 ****
5973 HO1   -59.949000  -93.535000  -62.338000 H    1991 GLP     0.4000 ****
5974 TO2   -44.066000  -82.590000  -52.631000 T    1992 GLP     0.6000 ****
5975 TO1   -48.170000  -90.280000  -57.532000 T    1992 GLP    -0.6000 ****
5976 HO1   -52.273000  -97.971000  -62.433000 H    1992 GLP     0.4000 ****
5977 TO2   -37.317000  -85.801000  -52.712000 T    1993 GLP     0.6000 ****
5978 TO1   -40.792000  -93.791000  -57.620000 T    1993 GLP    -0.6000 ****
5979 HO1   -44.267000 -101.781000  -62.528000 H    1993 GLP     0.4000 ****
5980 TO2   -30.333000  -88.464000  -52.792000 T    1994 GLP     0.6000 ****
5981 TO1   -33.158000  -96.701000  -57.708000 T    1994 GLP    -0.6000 ****
5982 HO1   -35.983000 -104.939000  -62.624000 H    1994 GLP     0.4000 ****
5983 TO2   -23.159000  -90.560000  -52.872000 T    1995 GLP     0.6000 ****
5984 TO1   -25.316000  -98.993000  -57.796000 T    1995 GLP    -0.6000 ****
5985 HO1   -27.472000 -107.426000  -62.719000 H    1995 GLP     0.4000 ****
5986 TO2   -15.841000  -92.076000  -52.953000 T    1996 GLP     0.6000 ****
5987 TO1   -17.316000 -100.650000  -57.883000 T    1996 GLP    -0.6000 ****
5988 HO1   -18.791000 -109.224000  -62.814000 H    1996 GLP     0.4000 ****
5989 TO2    -8.424000  -93.003000  -53.033000 T    1997 GLP     0.6000 ****
5990 TO1    -9.209000 -101.663000  -57.971000 T    1997 GLP    -0.6000 ****
5991 HO1    -9.993000 -110.323000  -62.909000 H    1997 GLP     0.4000 ****
5992 TO2    -0.957000  -93.333000  -53.113000 T    1998 GLP     0.6000 ****
5993 TO1    -1.046000 -102.024000  -58.059000 T    1998 GLP    -0.6000 ****
5994 HO1    -1.136000 -110.715000  -63.005000 H    1998 GLP     0.4000 ****
5995 TO2     6.512000  -93.064000  -53.194000 T    1999 GLP     0.6000 ****
5996 TO1     7.118000 -101.730000  -58.147000 T    1999 GLP    -0.6000 ****
5997 HO1     7.725000 -110.396000  -63.100000 H    1999 GLP     0.4000 ****
5998 TO2    13.936000  -92.199000  -53.274000 T    2000 GLP     0.6000 ****
5999 TO1    15.233000 -100.784000  -58.235000 T    2000 GLP    -0.6000 ****
6000 HO1    16.531000 -109.370000  -63.195000 H    2000 GLP     0.4000 ****
6001 TO2    21.266000  -90.742000  -53.354000 T    2001 GLP     0.6000 ****
6002 TO1    23.247000  -99.191000  -58.323000 T    2001 GLP    -0.6000 ****
6003 HO1    25.227000 -107.641000  -63.291000 H    2001 GLP     0.4000 ****
6004 TO2    28.457000  -88.701000  -53.435000 T    2002 GLP     0.6000 ****
6005 TO1    31.106000  -96.961000  -58.410000 T    2002 GLP    -0.6000 ****
6006 HO1    33.756000 -105.221000  -63.386000 H    2002 GLP     0.4000 ****
6007 TO2    35.460000  -86.091000  -53.515000 T    2003 GLP     0.6000 ****
6008 TO1    38.762000  -94.108000  -58.498000 T    2003 GLP    -0.6000 ****
6009 HO1    42.064000 -102.124000  -63.481000 H    2003 GLP     0.4000 ****
6010 TO2    42.232000  -82.928000  -53.595000 T    2004 GLP     0.6000 ****
6011 TO1    46.164000  -90.650000  -58.586000 T    2004 GLP    -0.6000 ****
6012 HO1    50.097000  -98.372000  -63.577000 H    2004 GLP     0.4000 ****
6013 TO2    48.727000  -79.231000  -53.676000 T    2005 GLP     0.6000 ****
6014 TO1    53.265000  -86.609000  -58.674000 T    2005 GLP    -0.6000 ****
6015 HO1    57.802000  -93.986000  -63.672000 H    2005 GLP     0.4000 ****
6016 TO2    54.905000  -75.024000  -53.756000 T    2006 GLP     0.6000 ****
6017 TO1    60.018000  -82.010000  -58.762000 T    2006 GLP    -0.6000 ****
6018 HO1    65.131000  -88.996000  -63.767000 H    2006 GLP     0.4000 ****
6019 TO2    60.725000  -70.335000  -53.836000 T    2007 GLP     0.6000 ****
6020 TO1    66.380000  -76.884000  -58.850000 T    2007 GLP    -0.6000 ****
6021 HO1    72.035000  -83.434000  -63.863000 H    2007 GLP     0.4000 ****
6022 TO2    66.150000  -65.193000  -53.917000 T    2008 GLP     0.6000 ****
6023 TO1    72.309000  -71.264000  -58.937000 T    2008 GLP    -0.6000 ****
6024 HO1    78.469000  -77.334000  -63.958000 H    2008 GLP     0.4000 ****
6025 TO2    71.143000  -59.632000  -53.997000 T    2009 GLP     0.6000 ****
6026 TO1    77.768000  -65.185000  -59.025000 T    2009 GLP    -0.6000 ****
6027 HO1    84.392000  -70.737000  -64.053000 H    2009 GLP     0.4000 ****
6028 TO2    75.672000  -53.687000  -54.078000 T    2010 GLP     0.6000 ****
6029 TO1    82.719000  -58.686000  -59.113000 T    2010 GLP    -0.6000 ****
6030 HO1    89.765000  -63.685000  -64.149000 H    2010 GLP     0.4000 ****
6031 TO2    79.709000  -47.396000  -54.158000 T    2011 GLP     0.6000 ****
6032 TO1    87.131000  -51.810000  -59.201000 T    2011 GLP    -0.6000 ****
6033 HO1    94.553000  -56.223000  -64.244000 H    2011 GLP     0.4000 ****
6034 TO2    83.225000  -40.801000  -54.238000 T    2012 GLP     0.6000 ****
6035 TO1    90.975000  -44.600000  -59.289000 T    2012 GLP    -0.6000 ****
6036 HO1    98.725000  -48.400000  -64.339000 H    2012 GLP     0.4000 ****
6037 TO2    86.199000  -33.944000  -54.319000 T    2013 GLP     0.6000 ****
6038 TO1    94.226000  -37.105000  -59.377000 T    2013 GLP    -0.6000 ****
6039 HO1   102.252000  -40.266000  -64.435000 H    2013 GLP     0.4000 ****
6040 TO2    88.610000  -26.870000  -54.399000 T    2014 GLP     0.6000 ****
6041 TO1    96.861000  -29.372000  -59.464000 T    2014 GLP    -0.6000 ****
6042 HO1   105.112000  -31.874000  -64.530000 H    2014 GLP     0.4000 ****
6043 TO2    90.443000  -19.624000  -54.479000 T    2015 GLP     0.6000 ****
6044 TO1    98.864000  -21.451000  -59.552000 T    2015 GLP    -0.6000 ****
6045 HO1   107.286000  -23.279000  -64.625000 H    2015 GLP     0.4000 ****
6046 TO2    91.685000  -12.254000  -54.560000 T    2016 GLP     0.6000 ****
6047 TO1   100.222000  -13.395000  -59.640000 T    2016 GLP    -0.6000 ****
6048 HO1   108.759000  -14.536000  -64.720000 H    2016 GLP     0.4000 ****
6049 TO2    92.327000   -4.808000  -54.640000 T    2017 GLP     0.6000 ****
6050 TO1   100.925000   -5.255000  -59.728000 T    2017 GLP    -0.6000 ****
6051 HO1   109.522000   -5.703000  -64.816000 H    2017 GLP     0.4000 ****
6052 TO2    92.366000    2.666000  -54.720000 T    2018 GLP     0.6000 ****
6053 TO1   100.967000    2.915000  -59.816000 T    2018 GLP    -0.6000 ****
6054 HO1   109.568000    3.163000  -64.911000 H    2018 GLP     0.4000 ****
6055 TO2    91.801000   10.119000  -54.801000 T    2019 GLP     0.6000 ****
6056 TO1   100.349000   11.061000  -59.904000 T    2019 GLP    -0.6000 ****
6057 HO1   108.898000   12.003000  -65.006000 H    2019 GLP     0.4000 ****
6058 TO2    90.635000   17.501000  -54.881000 T    2020 GLP     0.6000 ****
6059 TO1    99.075000   19.131000  -59.991000 T    2020 GLP    -0.6000 ****
6060 HO1   107.515000   20.761000  -65.102000 H    2020 GLP     0.4000 ****
6061 TO2    88.876000   24.765000  -54.961000 T    2021 GLP     0.6000 ****
6062 TO1    97.152000   27.071000  -60.079000 T    2021 GLP    -0.6000 ****
6063 HO1   105.427000   29.377000  -65.197000 H    2021 GLP     0.4000 ****
6064 TO2    86.534000   31.863000  -55.042000 T    2022 GLP     0.6000 ****
6065 TO1    94.592000   34.830000  -60.167000 T    2022 GLP    -0.6000 ****
6066 HO1   102.650000   37.797000  -65.292000 H    2022 GLP     0.4000 ****
6067 TO2    83.625000   38.748000  -55.122000 T    2023 GLP     0.6000 ****
6068 TO1    91.412000   42.356000  -60.255000 T    2023 GLP    -0.6000 ****
6069 HO1    99.199000   45.964000  -65.388000 H    2023 GLP     0.4000 ****
6070 TO2    80.168000   45.374000  -55.202000 T    2024 GLP     0.6000 ****
6071 TO1    87.633000   49.599000  -60.343000 T    2024 GLP    -0.6000 ****
6072 HO1    95.098000   53.824000  -65.483000 H    2024 GLP     0.4000 ****
6073 TO2    76.185000   51.698000  -55.283000 T    2025 GLP     0.6000 ****
6074 TO1    83.279000   56.512000  -60.431000 T    2025 GLP    -0.6000 ****
6075 HO1    90.373000   61.326000  -65.578000 H    2025 GLP     0.4000 ****
6076 TO2    71.702000   57.678000  -55.363000 T    2026 GLP     0.6000 ****
6077 TO1    78.378000   63.049000  -60.518000 T    2026 GLP    -0.6000 ****
6078 HO1    85.055000   68.420000  -65.674000 H    2026 GLP     0.4000 ****
6079 TO2    66.748000   63.275000  -55.444000 T    2027 GLP     0.6000 ****
6080 TO1    72.963000   69.167000  -60.606000 T    2027 GLP    -0.6000 ****
6081 HO1    79.179000   75.059000  -65.769000 H    2027 GLP     0.4000 ****
6082 TO2    61.356000   68.450000  -55.524000 T    2028 GLP     0.6000 ****
6083 TO1    67.070000   74.824000  -60.694000 T    2028 GLP    -0.6000 ****
6084 HO1    72.783000   81.198000  -65.864000 H    2028 GLP     0.4000 ****
6085 TO2    55.562000   73.171000  -55.604000 T    2029 GLP     0.6000 ****
6086 TO1    60.736000   79.985000  -60.782000 T    2029 GLP    -0.6000 ****
6087 HO1    65.910000   86.798000  -65.960000 H    2029 GLP     0.4000 ****
6088 TO2    49.403000   77.405000  -55.685000 T    2030 GLP     0.6000 ****
6089 TO1    54.003000   84.613000  -60.870000 T    2030 GLP    -0.6000 ****
6090 HO1    58.604000   91.821000  -66.055000 H    2030 GLP     0.4000 ****
6091 TO2    42.920000   81.124000  -55.765000 T    2031 GLP     0.6000 ****
6092 TO1    46.917000   88.678000  -60.958000 T    2031 GLP    -0.6000 ****
6093 HO1    50.913000   96.232000  -66.150000 H    2031 GLP     0.4000 ****
6094 TO2    36.156000   84.303000  -55.845000 T    2032 GLP     0.6000 ****
6095 TO1    39.523000   92.153000  -61.045000 T    2032 GLP    -0.6000 ****
6096 HO1    42.889000  100.003000  -66.246000 H    2032 GLP     0.4000 ****
6097 TO2    29.156000   86.921000  -55.926000 T    2033 GLP     0.6000 ****
6098 TO1    31.870000   95.015000  -61.133000 T    2033 GLP    -0.6000 ****
6099 HO1    34.585000  103.109000  -66.341000 H    2033 GLP     0.4000 ****
6100 TO2    21.965000   88.960000  -56.006000 T    2034 GLP     0.6000 ****
6101 TO1    24.010000   97.243000  -61.221000 T    2034 GLP    -0.6000 ****
6102 HO1    26.056000  105.527000  -66.436000 H    2034 GLP     0.4000 ****
6103 TO2    14.632000   90.406000  -56.086000 T    2035 GLP     0.6000 ****
6104 TO1    15.995000   98.824000  -61.309000 T    2035 GLP    -0.6000 ****
6105 HO1    17.358000  107.242000  -66.532000 H    2035 GLP     0.4000 ****
6106 TO2     7.206000   91.249000  -56.167000 T    2036 GLP     0.6000 ****
6107 TO1     7.877000   99.746000  -61.397000 T    2036 GLP    -0.6000 ****
6108 HO1     8.548000  108.242000  -66.627000 H    2036 GLP     0.4000 ****
6109 TO2    -0.264000   91.483000  -56.247000 T    2037 GLP     0.6000 ****
6110 TO1    -0.288000  100.002000  -61.485000 T    2037 GLP    -0.6000 ****
6111 HO1    -0.313000  108.520000  -66.722000 H    2037 GLP     0.4000 ****
6112 TO2    -7.728000   91.107000  -56.327000 T    2038 GLP     0.6000 ****
6113 TO1    -8.448000   99.591000  -61.572000 T    2038 GLP    -0.6000 ****
6114 HO1    -9.168000  108.074000  -66.817000 H    2038 GLP     0.4000 ****
6115 TO2   -15.137000   90.122000  -56.408000 T    2039 GLP     0.6000 ****
6116 TO1   -16.546000   98.514000  -61.660000 T    2039 GLP    -0.6000 ****
6117 HO1   -17.956000  106.906000  -66.913000 H    2039 GLP     0.4000 ****
6118 TO2   -22.440000   88.535000  -56.488000 T    2040 GLP     0.6000 ****
6119 TO1   -24.530000   96.779000  -61.748000 T    2040 GLP    -0.6000 ****
6120 HO1   -26.620000  105.024000  -67.008000 H    2040 GLP     0.4000 ****
6121 TO2   -29.590000   86.356000  -56.568000 T    2041 GLP     0.6000 ****
6122 TO1   -32.345000   94.398000  -61.836000 T    2041 GLP    -0.6000 ****
6123 HO1   -35.100000  102.439000  -67.103000 H    2041 GLP     0.4000 ****
6124 TO2   -36.537000   83.600000  -56.649000 T    2042 GLP     0.6000 ****
6125 TO1   -39.939000   91.385000  -61.924000 T    2042 GLP    -0.6000 ****
6126 HO1   -43.341000   99.169000  -67.199000 H    2042 GLP     0.4000 ****
6127 TO2   -43.235000   80.284000  -56.729000 T    2043 GLP     0.6000 ****
6128 TO1   -47.260000   87.760000  -62.012000 T    2043 GLP    -0.6000 ****
6129 HO1   -51.286000   95.236000  -67.294000 H    2043 GLP     0.4000 ****
6130 TO2   -49.638000   76.431000  -56.810000 T    2044 GLP     0.6000 ****
6131 TO1   -54.261000   83.548000  -62.099000 T    2044 GLP    -0.6000 ****
6132 HO1   -58.883000   90.665000  -67.389000 H    2044 GLP     0.4000 ****
6133 TO2   -55.705000   72.066000  -56.890000 T    2045 GLP     0.6000 ****
6134 TO1   -60.892000   78.776000  -62.187000 T    2045 GLP    -0.6000 ****
6135 HO1   -66.079000   85.487000  -67.485000 H    2045 GLP     0.4000 ****
6136 TO2   -61.393000   67.218000  -56.970000 T    2046 GLP     0.6000 ****
6137 TO1   -67.110000   73.477000  -62.275000 T    2046 GLP    -0.6000 ****
6138 HO1   -72.827000   79.736000  -67.580000 H    2046 GLP     0.4000 ****
6139 TO2   -66.665000   61.920000  -57.051000 T    2047 GLP     0.6000 ****
6140 TO1   -72.872000   67.685000  -62.363000 T    2047 GLP    -0.6000 ****
6141 HO1   -79.080000   73.451000  -67.675000 H    2047 GLP     0.4000 ****
6142 TO2   -71.483000   56.207000  -57.131000 T    2048 GLP     0.6000 ****
6143 TO1   -78.139000   61.440000  -62.451000 T    2048 GLP    -0.6000 ****
6144 HO1   -84.796000   66.674000  -67.771000 H    2048 GLP     0.4000 ****
6145 TO2   -75.816000   50.117000  -57.211000 T    2049 GLP     0.6000 ****
6146 TO1   -82.876000   54.784000  -62.539000 T    2049 GLP    -0.6000 ****
6147 HO1   -89.936000   59.451000  -67.866000 H    2049 GLP     0.4000 ****
6148 TO2   -79.634000   43.692000  -57.292000 T    2050 GLP     0.6000 ****
6149 TO1   -87.050000   47.761000  -62.626000 T    2050 GLP    -0.6000 ****
6150 HO1   -94.465000   51.829000  -67.961000 H    2050 GLP     0.4000 ****
6151 TO2   -82.911000   36.975000  -57.372000 T    2051 GLP     0.6000 ****
6152 TO1   -90.632000   40.418000  -62.714000 T    2051 GLP    -0.6000 ****
6153 HO1   -98.352000   43.861000  -68.057000 H    2051 GLP     0.4000 ****
6154 TO2   -85.624000   30.011000  -57.452000 T    2052 GLP     0.6000 ****
6155 TO1   -93.597000   32.806000  -62.802000 T    2052 GLP    -0.6000 ****
6156 HO1  -101.570000   35.600000  -68.152000 H    2052 GLP     0.4000 ****
6157 TO2   -87.755000   22.848000  -57.533000 T    2053 GLP     0.6000 ****
6158 TO1   -95.927000   24.975000  -62.890000 T    2053 GLP    -0.6000 ****
6159 HO1  -104.098000   27.103000  -68.247000 H    2053 GLP     0.4000 ****
6160 TO2   -89.288000   15.533000  -57.613000 T    2054 GLP     0.6000 ****
6161 TO1   -97.603000   16.979000  -62.978000 T    2054 GLP    -0.6000 ****
6162 HO1  -105.917000   18.426000  -68.343000 H    2054 GLP     0.4000 ****
6163 TO2   -90.214000    8.117000  -57.693000 T    2055 GLP     0.6000 ****
6164 TO1   -98.614000    8.872000  -63.066000 T    2055 GLP    -0.6000 ****
6165 HO1  -107.015000    9.628000  -68.438000 H    2055 GLP     0.4000 ****
6166 TO2   -90.525000    0.649000  -57.774000 T    2056 GLP     0.6000 ****
6167 TO1   -98.954000    0.710000  -63.153000 T    2056 GLP    -0.6000 ****
6168 HO1  -107.384000    0.770000  -68.533000 H    2056 GLP     0.4000 ****
6169 TO2   -90.219000   -6.818000  -57.854000 T    2057 GLP     0.6000 ****
6170 TO1   -98.619000   -7.453000  -63.241000 T    2057 GLP    -0.6000 ****
6171 HO1  -107.020000   -8.088000  -68.628000 H    2057 GLP     0.4000 ****
6172 TO2   -89.297000  -14.235000  -57.934000 T    2058 GLP     0.6000 ****
6173 TO1   -97.612000  -15.560000  -63.329000 T    2058 GLP    -0.6000 ****
6174 HO1  -105.927000  -16.886000  -68.724000 H    2058 GLP     0.4000 ****
6175 TO2   -87.766000  -21.550000  -58.015000 T    2059 GLP     0.6000 ****
6176 TO1   -95.938000  -23.557000  -63.417000 T    2059 GLP    -0.6000 ****
6177 HO1  -104.111000  -25.563000  -68.819000 H    2059 GLP     0.4000 ****
6178 TO2   -85.636000  -28.714000  -58.095000 T    2060 GLP     0.6000 ****
6179 TO1   -93.610000  -31.387000  -63.505000 T    2060 GLP    -0.6000 ****
6180 HO1  -101.584000  -34.061000  -68.914000 H    2060 GLP     0.4000 ****
6181 TO2   -82.920000  -35.677000  -58.176000 T    2061 GLP     0.6000 ****
6182 TO1   -90.642000  -38.999000  -63.593000 T    2061 GLP    -0.6000 ****
6183 HO1   -98.363000  -42.321000  -69.010000 H    2061 GLP     0.4000 ****
6184 TO2   -79.638000  -42.391000  -58.256000 T    2062 GLP     0.6000 ****
6185 TO1   -87.054000  -46.338000  -63.680000 T    2062 GLP    -0.6000 ****
6186 HO1   -94.469000  -50.286000  -69.105000 H    2062 GLP     0.4000 ****
6187 TO2   -75.811000  -48.811000  -58.336000 T    2063 GLP     0.6000 ****
6188 TO1   -82.871000  -53.356000  -63.768000 T    2063 GLP    -0.6000 ****
6189 HO1   -89.930000  -57.901000  -69.200000 H    2063 GLP     0.4000 ****
6190 TO2   -71.466000  -54.891000  -58.417000 T    2064 GLP     0.6000 ****
6191 TO1   -78.121000  -60.003000  -63.856000 T    2064 GLP    -0.6000 ****
6192 HO1   -84.776000  -65.114000  -69.296000 H    2064 GLP     0.4000 ****
6193 TO2   -66.632000  -60.591000  -58.497000 T    2065 GLP     0.6000 ****
6194 TO1   -72.836000  -66.233000  -63.944000 T    2065 GLP    -0.6000 ****
6195 HO1   -79.041000  -71.875000  -69.391000 H    2065 GLP     0.4000 ****
6196 TO2   -61.342000  -65.870000  -58.577000 T    2066 GLP     0.6000 ****
6197 TO1   -67.054000  -72.004000  -64.032000 T    2066 GLP    -0.6000 ****
6198 HO1   -72.766000  -78.137000  -69.486000 H    2066 GLP     0.4000 ****
6199 TO2   -55.632000  -70.692000  -58.658000 T    2067 GLP     0.6000 ****
6200 TO1   -60.812000  -77.275000  -64.120000 T    2067 GLP    -0.6000 ****
6201 HO1   -65.992000  -83.857000  -69.582000 H    2067 GLP     0.4000 ****
6202 TO2   -49.541000  -75.023000  -58.738000 T    2068 GLP     0.6000 ****
6203 TO1   -54.154000  -82.009000  -64.207000 T    2068 GLP    -0.6000 ****
6204 HO1   -58.767000  -88.995000  -69.677000 H    2068 GLP     0.4000 ****
6205 TO2   -43.112000  -78.834000  -58.818000 T    2069 GLP     0.6000 ****
6206 TO1   -47.126000  -86.174000  -64.295000 T    2069 GLP    -0.6000 ****
6207 HO1   -51.141000  -93.515000  -69.772000 H    2069 GLP     0.4000 ****
6208 TO2   -36.388000  -82.096000  -58.899000 T    2070 GLP     0.6000 ****
6209 TO1   -39.776000  -89.741000  -64.383000 T    2070 GLP    -0.6000 ****
6210 HO1   -43.165000  -97.386000  -69.868000 H    2070 GLP     0.4000 ****
6211 TO2   -29.416000  -84.789000  -58.979000 T    2071 GLP     0.6000 ****
6212 TO1   -32.155000  -92.684000  -64.471000 T    2071 GLP    -0.6000 ****
6213 HO1   -34.894000 -100.579000  -69.963000 H    2071 GLP     0.4000 ****
6214 TO2   -22.244000  -86.892000  -59.059000 T    2072 GLP     0.6000 ****
6215 TO1   -24.316000  -94.983000  -64.559000 T    2072 GLP    -0.6000 ****
6216 HO1   -26.387000 -103.074000  -70.058000 H    2072 GLP     0.4000 ****
6217 TO2   -14.923000  -88.390000  -59.140000 T    2073 GLP     0.6000 ****
6218 TO1   -16.312000  -96.621000  -64.647000 T    2073 GLP    -0.6000 ****
6219 HO1   -17.702000 -104.851000  -70.154000 H    2073 GLP     0.4000 ****
6220 TO2    -7.501000  -89.273000  -59.220000 T    2074 GLP     0.6000 ****
6221 TO1    -8.200000  -97.586000  -64.734000 T    2074 GLP    -0.6000 ****
6222 HO1    -8.898000 -105.899000  -70.249000 H    2074 GLP     0.4000 ****
6223 TO2    -0.032000  -89.534000  -59.300000 T    2075 GLP     0.6000 ****
6224 TO1    -0.035000  -97.872000  -64.822000 T    2075 GLP    -0.6000 ****
6225 HO1    -0.038000 -106.209000  -70.344000 H    2075 GLP     0.4000 ****
6226 TO2     7.433000  -89.172000  -59.381000 T    2076 GLP     0.6000 ****
6227 TO1     8.125000  -97.475000  -64.910000 T    2076 GLP    -0.6000 ****
6228 HO1     8.817000 -105.779000  -70.440000 H    2076 GLP     0.4000 ****
6229 TO2    14.841000  -88.188000  -59.461000 T    2077 GLP     0.6000 ****
6230 TO1    16.223000  -96.400000  -64.998000 T    2077 GLP    -0.6000 ****
6231 HO1    17.605000 -104.611000  -70.535000 H    2077 GLP     0.4000 ****
6232 TO2    22.141000  -86.588000  -59.541000 T    2078 GLP     0.6000 ****
6233 TO1    24.203000  -94.651000  -65.086000 T    2078 GLP    -0.6000 ****
6234 HO1    26.265000 -102.714000  -70.630000 H    2078 GLP     0.4000 ****
6235 TO2    29.283000  -84.384000  -59.622000 T    2079 GLP     0.6000 ****
6236 TO1    32.009000  -92.242000  -65.174000 T    2079 GLP    -0.6000 ****
6237 HO1    34.736000 -100.100000  -70.725000 H    2079 GLP     0.4000 ****
6238 TO2    36.215000  -81.591000  -59.702000 T    2080 GLP     0.6000 ****
6239 TO1    39.587000  -89.189000  -65.262000 T    2080 GLP    -0.6000 ****
6240 HO1    42.959000  -96.786000  -70.821000 H    2080 GLP     0.4000 ****
6241 TO2    42.889000  -78.228000  -59.783000 T    2081 GLP     0.6000 ****
6242 TO1    46.882000  -85.512000  -65.349000 T    2081 GLP    -0.6000 ****
6243 HO1    50.876000  -92.796000  -70.916000 H    2081 GLP     0.4000 ****
6244 TO2    49.258000  -74.318000  -59.863000 T    2082 GLP     0.6000 ****
6245 TO1    53.844000  -81.238000  -65.437000 T    2082 GLP    -0.6000 ****
6246 HO1    58.431000  -88.158000  -71.011000 H    2082 GLP     0.4000 ****
6247 TO2    55.277000  -69.888000  -59.943000 T    2083 GLP     0.6000 ****
6248 TO1    60.424000  -76.395000  -65.525000 T    2083 GLP    -0.6000 ****
6249 HO1    65.571000  -82.903000  -71.107000 H    2083 GLP     0.4000 ****
6250 TO2    60.903000  -64.969000  -60.024000 T    2084 GLP     0.6000 ****
6251 TO1    66.574000  -71.018000  -65.613000 T    2084 GLP    -0.6000 ****
6252 HO1    72.245000  -77.068000  -71.202000 H    2084 GLP     0.4000 ****
6253 TO2    66.097000  -59.595000  -60.104000 T    2085 GLP     0.6000 ****
6254 TO1    72.252000  -65.145000  -65.701000 T    2085 GLP    -0.6000 ****
6255 HO1    78.407000  -70.694000  -71.297000 H    2085 GLP     0.4000 ****
6256 TO2    70.822000  -53.805000  -60.184000 T    2086 GLP     0.6000 ****
6257 TO1    77.417000  -58.815000  -65.789000 T    2086 GLP    -0.6000 ****
6258 HO1    84.012000  -63.825000  -71.393000 H    2086 GLP     0.4000 ****
6259 TO2    75.045000  -47.639000  -60.265000 T    2087 GLP     0.6000 ****
6260 TO1    82.033000  -52.075000  -65.876000 T    2087 GLP    -0.6000 ****
6261 HO1    89.021000  -56.510000  -71.488000 H    2087 GLP     0.4000 ****
6262 TO2    78.734000  -41.139000  -60.345000 T    2088 GLP     0.6000 ****
6263 TO1    86.065000  -44.970000  -65.964000 T    2088 GLP    -0.6000 ****
6264 HO1    93.397000  -48.801000  -71.583000 H    2088 GLP     0.4000 ****
6265 TO2    81.864000  -34.352000  -60.425000 T    2089 GLP     0.6000 ****
6266 TO1    89.486000  -37.551000  -66.052000 T    2089 GLP    -0.6000 ****
6267 HO1    97.109000  -40.750000  -71.679000 H    2089 GLP     0.4000 ****
6268 TO2    84.411000  -27.327000  -60.506000 T    2090 GLP     0.6000 ****
6269 TO1    92.271000  -29.871000  -66.140000 T    2090 GLP    -0.6000 ****
6270 HO1   100.132000  -32.416000  -71.774000 H    2090 GLP     0.4000 ****
6271 TO2    86.359000  -20.111000  -60.586000 T    2091 GLP     0.6000 ****
6272 TO1    94.400000  -21.984000  -66.228000 T    2091 GLP    -0.6000 ****
6273 HO1   102.442000  -23.857000  -71.869000 H    2091 GLP     0.4000 ****
6274 TO2    87.691000  -12.758000  -60.666000 T    2092 GLP     0.6000 ****
6275 TO1    95.857000  -13.946000  -66.316000 T    2092 GLP    -0.6000 ****
6276 HO1   104.023000  -15.134000  -71.965000 H    2092 GLP     0.4000 ****
6277 TO2    88.400000   -5.318000  -60.747000 T    2093 GLP     0.6000 ****
6278 TO1    96.631000   -5.813000  -66.403000 T    2093 GLP    -0.6000 ****
6279 HO1   104.863000   -6.308000  -72.060000 H    2093 GLP     0.4000 ****
6280 TO2    88.478000    2.155000  -60.827000 T    2094 GLP     0.6000 ****
6281 TO1    96.717000    2.356000  -66.491000 T    2094 GLP    -0.6000 ****
6282 HO1   104.956000    2.557000  -72.155000 H    2094 GLP     0.4000 ****
6283 TO2    87.926000    9.608000  -60.907000 T    2095 GLP     0.6000 ****
6284 TO1    96.113000   10.503000  -66.579000 T    2095 GLP    -0.6000 ****
6285 HO1   104.300000   11.397000  -72.251000 H    2095 GLP     0.4000 ****
6286 TO2    86.746000   16.988000  -60.988000 T    2096 GLP     0.6000 ****
6287 TO1    94.823000   18.570000  -66.667000 T    2096 GLP    -0.6000 ****
6288 HO1   102.901000   20.152000  -72.346000 H    2096 GLP     0.4000 ****
6289 TO2    84.947000   24.242000  -61.068000 T    2097 GLP     0.6000 ****
6290 TO1    92.857000   26.499000  -66.755000 T    2097 GLP    -0.6000 ****
6291 HO1   100.767000   28.756000  -72.441000 H    2097 GLP     0.4000 ****
6292 TO2    82.541000   31.317000  -61.149000 T    2098 GLP     0.6000 ****
6293 TO1    90.227000   34.233000  -66.843000 T    2098 GLP    -0.6000 ****
6294 HO1    97.913000   37.149000  -72.537000 H    2098 GLP     0.4000 ****
6295 TO2    79.546000   38.164000  -61.229000 T    2099 GLP     0.6000 ****
6296 TO1    86.953000   41.718000  -66.930000 T    2099 GLP    -0.6000 ****
6297 HO1    94.360000   45.271000  -72.632000 H    2099 GLP     0.4000 ****
6298 TO2    75.981000   44.733000  -61.309000 T    2100 GLP     0.6000 ****
6299 TO1    83.056000   48.898000  -67.018000 T    2100 GLP    -0.6000 ****
6300 HO1    90.132000   53.063000  -72.727000 H    2100 GLP     0.4000 ****
6301 TO2    71.873000   50.976000  -61.390000 T    2101 GLP     0.6000 ****
6302 TO1    78.566000   55.722000  -67.106000 T    2101 GLP    -0.6000 ****
6303 HO1    85.259000   60.469000  -72.822000 H    2101 GLP     0.4000 ****
6304 TO2    67.251000   56.848000  -61.470000 T    2102 GLP     0.6000 ****
6305 TO1    73.513000   62.142000  -67.194000 T    2102 GLP    -0.6000 ****
6306 HO1    79.775000   67.435000  -72.918000 H    2102 GLP     0.4000 ****
6307 TO2    62.147000   62.307000  -61.550000 T    2103 GLP     0.6000 ****
6308 TO1    67.934000   68.109000  -67.282000 T    2103 GLP    -0.6000 ****
6309 HO1    73.721000   73.911000  -73.013000 H    2103 GLP     0.4000 ****
6310 TO2    56.599000   67.314000  -61.631000 T    2104 GLP     0.6000 ****
6311 TO1    61.869000   73.582000  -67.370000 T    2104 GLP    -0.6000 ****
6312 HO1    67.140000   79.850000  -73.108000 H    2104 GLP     0.4000 ****
6313 TO2    50.645000   71.831000  -61.711000 T    2105 GLP     0.6000 ****
6314 TO1    55.361000   78.520000  -67.457000 T    2105 GLP    -0.6000 ****
6315 HO1    60.077000   85.209000  -73.204000 H    2105 GLP     0.4000 ****
6316 TO2    44.330000   75.827000  -61.791000 T    2106 GLP     0.6000 ****
6317 TO1    48.457000   82.887000  -67.545000 T    2106 GLP    -0.6000 ****
6318 HO1    52.585000   89.948000  -73.299000 H    2106 GLP     0.4000 ****
6319 TO2    37.697000   79.270000  -61.872000 T    2107 GLP     0.6000 ****
6320 TO1    41.207000   86.652000  -67.633000 T    2107 GLP    -0.6000 ****
6321 HO1    44.717000   94.033000  -73.394000 H    2107 GLP     0.4000 ****
6322 TO2    30.795000   82.137000  -61.952000 T    2108 GLP     0.6000 ****
6323 TO1    33.663000   89.786000  -67.721000 T    2108 GLP    -0.6000 ****
6324 HO1    36.531000   97.434000  -73.490000 H    2108 GLP     0.4000 ****
6325 TO2    23.675000   84.406000  -62.032000 T    2109 GLP     0.6000 ****
6326 TO1    25.879000   92.266000  -67.809000 T    2109 GLP    -0.6000 ****
6327 HO1    28.084000  100.126000  -73.585000 H    2109 GLP     0.4000 ****
6328 TO2    16.387000   86.061000  -62.113000 T    2110 GLP     0.6000 ****
6329 TO1    17.913000   94.074000  -67.897000 T    2110 GLP    -0.6000 ****
6330 HO1    19.439000  102.088000  -73.680000 H    2110 GLP     0.4000 ****
6331 TO2     8.985000   87.088000  -62.193000 T    2111 GLP     0.6000 ****
6332 TO1     9.821000   95.197000  -67.984000 T    2111 GLP    -0.6000 ****
6333 HO1    10.658000  103.306000  -73.776000 H    2111 GLP     0.4000 ****
6334 TO2     1.522000   87.480000  -62.273000 T    2112 GLP     0.6000 ****
6335 TO1     1.663000   95.625000  -68.072000 T    2112 GLP    -0.6000 ****
6336 HO1     1.805000  103.771000  -73.871000 H    2112 GLP     0.4000 ****
6337 TO2    -5.948000   87.233000  -62.354000 T    2113 GLP     0.6000 ****
6338 TO1    -6.501000   95.356000  -68.160000 T    2113 GLP    -0.6000 ****
6339 HO1    -7.055000  103.479000  -73.966000 H    2113 GLP     0.4000 ****
6340 TO2   -13.369000   86.349000  -62.434000 T    2114 GLP     0.6000 ****
6341 TO1   -14.613000   94.390000  -68.248000 T    2114 GLP    -0.6000 ****
6342 HO1   -15.858000  102.431000  -74.062000 H    2114 GLP     0.4000 ****
6343 TO2   -20.687000   84.835000  -62.515000 T    2115 GLP     0.6000 ****
6344 TO1   -22.613000   92.734000  -68.336000 T    2115 GLP    -0.6000 ****
6345 HO1   -24.539000  100.634000  -74.157000 H    2115 GLP     0.4000 ****
6346 TO2   -27.849000   82.700000  -62.595000 T    2116 GLP     0.6000 ****
6347 TO1   -30.442000   90.401000  -68.424000 T    2116 GLP    -0.6000 ****
6348 HO1   -33.035000   98.102000  -74.252000 H    2116 GLP     0.4000 ****
6349 TO2   -34.801000   79.960000  -62.675000 T    2117 GLP     0.6000 ****
6350 TO1   -38.042000   87.406000  -68.511000 T    2117 GLP    -0.6000 ****
6351 HO1   -41.283000   94.852000  -74.348000 H    2117 GLP     0.4000 ****
6352 TO2   -41.494000   76.635000  -62.756000 T    2118 GLP     0.6000 ****
6353 TO1   -45.358000   83.771000  -68.599000 T    2118 GLP    -0.6000 ****
6354 HO1   -49.222000   90.907000  -74.443000 H    2118 GLP     0.4000 ****
6355 TO2   -47.877000   72.749000  -62.836000 T    2119 GLP     0.6000 ****
6356 TO1   -52.336000   79.523000  -68.687000 T    2119 GLP    -0.6000 ****
6357 HO1   -56.794000   86.297000  -74.538000 H    2119 GLP     0.4000 ****
6358 TO2   -53.904000   68.329000  -62.916000 T    2120 GLP     0.6000 ****
6359 TO1   -58.923000   74.692000  -68.775000 T    2120 GLP    -0.6000 ****
6360 HO1   -63.943000   81.054000  -74.633000 H    2120 GLP     0.4000 ****
6361 TO2   -59.529000   63.409000  -62.997000 T    2121 GLP     0.6000 ****
6362 TO1   -65.072000   69.313000  -68.863000 T    2121 GLP    -0.6000 ****
6363 HO1   -70.615000   75.218000  -74.729000 H    2121 GLP     0.4000 ****
6364 TO2   -64.711000   58.024000  -63.077000 T    2122 GLP     0.6000 ****
6365 TO1   -70.736000   63.427000  -68.951000 T    2122 GLP    -0.6000 ****
6366 HO1   -76.762000   68.830000  -74.824000 H    2122 GLP     0.4000 ****
6367 TO2   -69.411000   52.214000  -63.157000 T    2123 GLP     0.6000 ****
6368 TO1   -75.874000   57.076000  -69.038000 T    2123 GLP    -0.6000 ****
6369 HO1   -82.337000   61.938000  -74.919000 H    2123 GLP     0.4000 ****
6370 TO2   -73.594000   46.021000  -63.238000 T    2124 GLP     0.6000 ****
6371 TO1   -80.446000   50.306000  -69.126000 T    2124 GLP    -0.6000 ****
6372 HO1   -87.299000   54.592000  -75.015000 H    2124 GLP     0.4000 ****
6373 TO2   -77.228000   39.491000  -63.318000 T    2125 GLP     0.6000 ****
6374 TO1   -84.420000   43.169000  -69.214000 T    2125 GLP    -0.6000 ****
6375 HO1   -91.611000   46.846000  -75.110000 H    2125 GLP     0.4000 ****
6376 TO2   -80.288000   32.673000  -63.398000 T    2126 GLP     0.6000 ****
6377 TO1   -87.764000   35.715000  -69.302000 T    2126 GLP    -0.6000 ****
6378 HO1   -95.240000   38.758000  -75.205000 H    2126 GLP     0.4000 ****
6379 TO2   -82.748000   25.616000  -63.479000 T    2127 GLP     0.6000 ****
6380 TO1   -90.453000   28.002000  -69.390000 T    2127 GLP    -0.6000 ****
6381 HO1   -98.158000   30.387000  -75.301000 H    2127 GLP     0.4000 ****
6382 TO2   -84.591000   18.374000  -63.559000 T    2128 GLP     0.6000 ****
6383 TO1   -92.468000   20.085000  -69.478000 T    2128 GLP    -0.6000 ****
6384 HO1  -100.344000   21.796000  -75.396000 H    2128 GLP     0.4000 ****
6385 TO2   -85.802000   11.000000  -63.639000 T    2129 GLP     0.6000 ****
6386 TO1   -93.792000   12.024000  -69.565000 T    2129 GLP    -0.6000 ****
6387 HO1  -101.781000   13.048000  -75.491000 H    2129 GLP     0.4000 ****
6388 TO2   -86.372000    3.548000  -63.720000 T    2130 GLP     0.6000 ****
6389 TO1   -94.415000    3.879000  -69.653000 T    2130 GLP    -0.6000 ****
6390 HO1  -102.458000    4.209000  -75.587000 H    2130 GLP     0.4000 ****
6391 TO2   -86.297000   -3.924000  -63.800000 T    2131 GLP     0.6000 ****
6392 TO1   -94.332000   -4.290000  -69.741000 T    2131 GLP    -0.6000 ****
6393 HO1  -102.368000   -4.655000  -75.682000 H    2131 GLP     0.4000 ****
6394 TO2   -85.575000  -11.363000  -63.881000 T    2132 GLP     0.6000 ****
6395 TO1   -93.544000  -12.421000  -69.829000 T    2132 GLP    -0.6000 ****
6396 HO1  -101.512000  -13.479000  -75.777000 H    2132 GLP     0.4000 ****
6397 TO2   -84.213000  -18.711000  -63.961000 T    2133 GLP     0.6000 ****
6398 TO1   -92.055000  -20.453000  -69.917000 T    2133 GLP    -0.6000 ****
6399 HO1   -99.897000  -22.195000  -75.873000 H    2133 GLP     0.4000 ****
6400 TO2   -82.220000  -25.913000  -64.041000 T    2134 GLP     0.6000 ****
6401 TO1   -89.877000  -28.326000  -70.005000 T    2134 GLP    -0.6000 ****
6402 HO1   -97.533000  -30.739000  -75.968000 H    2134 GLP     0.4000 ****
6403 TO2   -79.611000  -32.916000  -64.122000 T    2135 GLP     0.6000 ****
6404 TO1   -87.024000  -35.981000  -70.092000 T    2135 GLP    -0.6000 ****
6405 HO1   -94.437000  -39.046000  -76.063000 H    2135 GLP     0.4000 ****
6406 TO2   -76.405000  -39.666000  -64.202000 T    2136 GLP     0.6000 ****
6407 TO1   -83.519000  -43.360000  -70.180000 T    2136 GLP    -0.6000 ****
6408 HO1   -90.634000  -47.053000  -76.159000 H    2136 GLP     0.4000 ****
6409 TO2   -72.625000  -46.113000  -64.282000 T    2137 GLP     0.6000 ****
6410 TO1   -79.387000  -50.407000  -70.268000 T    2137 GLP    -0.6000 ****
6411 HO1   -86.150000  -54.701000  -76.254000 H    2137 GLP     0.4000 ****
6412 TO2   -68.300000  -52.207000  -64.363000 T    2138 GLP     0.6000 ****
6413 TO1   -74.659000  -57.068000  -70.356000 T    2138 GLP    -0.6000 ****
6414 HO1   -81.019000  -61.930000  -76.349000 H    2138 GLP     0.4000 ****
6415 TO2   -63.461000  -57.903000  -64.443000 T    2139 GLP     0.6000 ****
6416 TO1   -69.371000  -63.294000  -70.444000 T    2139 GLP    -0.6000 ****
6417 HO1   -75.280000  -68.686000  -76.445000 H    2139 GLP     0.4000 ****
6418 TO2   -58.147000  -63.156000  -64.523000 T    2140 GLP     0.6000 ****
6419 TO1   -63.561000  -69.037000  -70.532000 T    2140 GLP    -0.6000 ****
6420 HO1   -68.975000  -74.918000  -76.540000 H    2140 GLP     0.4000 ****
6421 TO2   -52.395000  -67.927000  -64.604000 T    2141 GLP     0.6000 ****
6422 TO1   -57.274000  -74.252000  -70.619000 T    2141 GLP    -0.6000 ****
6423 HO1   -62.153000  -80.578000  -76.635000 H    2141 GLP     0.4000 ****
6424 TO2   -46.250000  -72.180000  -64.684000 T    2142 GLP     0.6000 ****
6425 TO1   -50.556000  -78.901000  -70.707000 T    2142 GLP    -0.6000 ****
6426 HO1   -54.863000  -85.622000  -76.730000 H    2142 GLP     0.4000 ****
6427 TO2   -39.758000  -75.881000  -64.764000 T    2143 GLP     0.6000 ****
6428 TO1   -43.460000  -82.946000  -70.795000 T    2143 GLP    -0.6000 ****
6429 HO1   -47.162000  -90.012000  -76.826000 H    2143 GLP     0.4000 ****
6430 TO2   -32.967000  -79.002000  -64.845000 T    2144 GLP     0.6000 ****
6431 TO1   -36.037000  -86.358000  -70.883000 T    2144 GLP    -0.6000 ****
6432 HO1   -39.107000  -93.715000  -76.921000 H    2144 GLP     0.4000 ****
6433 TO2   -25.931000  -81.519000  -64.925000 T    2145 GLP     0.6000 ****
6434 TO1   -28.346000  -89.109000  -70.971000 T    2145 GLP    -0.6000 ****
6435 HO1   -30.760000  -96.700000  -77.016000 H    2145 GLP     0.4000 ****
6436 TO2   -18.702000  -83.412000  -65.005000 T    2146 GLP     0.6000 ****
6437 TO1   -20.443000  -91.179000  -71.059000 T    2146 GLP    -0.6000 ****
6438 HO1   -22.185000  -98.946000  -77.112000 H    2146 GLP     0.4000 ****
6439 TO2   -11.335000  -84.666000  -65.086000 T    2147 GLP     0.6000 ****
6440 TO1   -12.390000  -92.550000  -71.146000 T    2147 GLP    -0.6000 ****
6441 HO1   -13.446000 -100.434000  -77.207000 H    2147 GLP     0.4000 ****
6442 TO2    -3.886000  -85.272000  -65.166000 T    2148 GLP     0.6000 ****
6443 TO1    -4.248000  -93.212000  -71.234000 T    2148 GLP    -0.6000 ****
6444 HO1    -4.610000 -101.152000  -77.302000 H    2148 GLP     0.4000 ****
6445 TO2     3.586000  -85.223000  -65.247000 T    2149 GLP     0.6000 ****
6446 TO1     3.920000  -93.159000  -71.322000 T    2149 GLP    -0.6000 ****
6447 HO1     4.254000 -101.095000  -77.398000 H    2149 GLP     0.4000 ****
6448 TO2    11.026000  -84.521000  -65.327000 T    2150 GLP     0.6000 ****
6449 TO1    12.053000  -92.391000  -71.410000 T    2150 GLP    -0.6000 ****
6450 HO1    13.080000 -100.262000  -77.493000 H    2150 GLP     0.4000 ****
6451 TO2    18.376000  -83.170000  -65.407000 T    2151 GLP     0.6000 ****
6452 TO1    20.087000  -90.914000  -71.498000 T    2151 GLP    -0.6000 ****
6453 HO1    21.798000  -98.659000  -77.588000 H    2151 GLP     0.4000 ****
6454 TO2    25.579000  -81.179000  -65.488000 T    2152 GLP     0.6000 ****
6455 TO1    27.961000  -88.738000  -71.586000 T    2152 GLP    -0.6000 ****
6456 HO1    30.343000  -96.297000  -77.684000 H    2152 GLP     0.4000 ****
6457 TO2    32.580000  -78.564000  -65.568000 T    2153 GLP     0.6000 ****
6458 TO1    35.613000  -85.880000  -71.673000 T    2153 GLP    -0.6000 ****
6459 HO1    38.647000  -93.196000  -77.779000 H    2153 GLP     0.4000 ****
6460 TO2    39.324000  -75.345000  -65.648000 T    2154 GLP     0.6000 ****
6461 TO1    42.985000  -82.361000  -71.761000 T    2154 GLP    -0.6000 ****
6462 HO1    46.647000  -89.377000  -77.874000 H    2154 GLP     0.4000 ****
6463 TO2    45.759000  -71.546000  -65.729000 T    2155 GLP     0.6000 ****
6464 TO1    50.020000  -78.208000  -71.849000 T    2155 GLP    -0.6000 ****
6465 HO1    54.281000  -84.870000  -77.970000 H    2155 GLP     0.4000 ****
6466 TO2    51.835000  -67.196000  -65.809000 T    2156 GLP     0.6000 ****
6467 TO1    56.662000  -73.453000  -71.937000 T    2156 GLP    -0.6000 ****
6468 HO1    61.488000  -79.710000  -78.065000 H    2156 GLP     0.4000 ****
6469 TO2    57.505000  -62.328000  -65.889000 T    2157 GLP     0.6000 ****
6470 TO1    62.859000  -68.132000  -72.025000 T    2157 GLP    -0.6000 ****
6471 HO1    68.214000  -73.936000  -78.160000 H    2157 GLP     0.4000 ****
6472 TO2    62.724000  -56.980000  -65.970000 T    2158 GLP     0.6000 ****
6473 TO1    68.565000  -62.285000  -72.113000 T    2158 GLP    -0.6000 ****
6474 HO1    74.405000  -67.591000  -78.256000 H    2158 GLP     0.4000 ****
6475 TO2    67.451000  -51.192000  -66.050000 T    2159 GLP     0.6000 ****
6476 TO1    73.732000  -55.959000  -72.200000 T    2159 GLP    -0.6000 ****
6477 HO1    80.013000  -60.726000  -78.351000 H    2159 GLP     0.4000 ****
6478 TO2    71.650000  -45.011000  -66.130000 T    2160 GLP     0.6000 ****
6479 TO1    78.322000  -49.202000  -72.288000 T    2160 GLP    -0.6000 ****
6480 HO1    84.994000  -53.393000  -78.446000 H    2160 GLP     0.4000 ****
6481 TO2    75.287000  -38.483000  -66.211000 T    2161 GLP     0.6000 ****
6482 TO1    82.298000  -42.066000  -72.376000 T    2161 GLP    -0.6000 ****
6483 HO1    89.308000  -45.649000  -78.542000 H    2161 GLP     0.4000 ****
6484 TO2    78.334000  -31.659000  -66.291000 T    2162 GLP     0.6000 ****
6485 TO1    85.628000  -34.607000  -72.464000 T    2162 GLP    -0.6000 ****
6486 HO1    92.922000  -37.555000  -78.637000 H    2162 GLP     0.4000 ****
6487 TO2    80.765000  -24.593000  -66.371000 T    2163 GLP     0.6000 ****
6488 TO1    88.286000  -26.883000  -72.552000 T    2163 GLP    -0.6000 ****
6489 HO1    95.806000  -29.173000  -78.732000 H    2163 GLP     0.4000 ****
6490 TO2    82.562000  -17.339000  -66.452000 T    2164 GLP     0.6000 ****
6491 TO1    90.250000  -18.954000  -72.640000 T    2164 GLP    -0.6000 ****
6492 HO1    97.938000  -20.568000  -78.827000 H    2164 GLP     0.4000 ****
6493 TO2    83.710000   -9.955000  -66.532000 T    2165 GLP     0.6000 ****
6494 TO1    91.505000  -10.882000  -72.727000 T    2165 GLP    -0.6000 ****
6495 HO1    99.299000  -11.809000  -78.923000 H    2165 GLP     0.4000 ****
6496 TO2    84.199000   -2.498000  -66.613000 T    2166 GLP     0.6000 ****
6497 TO1    92.040000   -2.731000  -72.815000 T    2166 GLP    -0.6000 ****
6498 HO1    99.880000   -2.963000  -79.018000 H    2166 GLP     0.4000 ****
6499 TO2    84.026000    4.973000  -66.693000 T    2167 GLP     0.6000 ****
6500 TO1    91.850000    5.436000  -72.903000 T    2167 GLP    -0.6000 ****
6501 HO1    99.674000    5.899000  -79.113000 H    2167 GLP     0.4000 ****
6502 TO2    83.190000   12.399000  -66.773000 T    2168 GLP     0.6000 ****
6503 TO1    90.936000   13.553000  -72.991000 T    2168 GLP    -0.6000 ****
6504 HO1    98.683000   14.708000  -79.209000 H    2168 GLP     0.4000 ****
6505 TO2    81.699000   19.721000  -66.854000 T    2169 GLP     0.6000 ****
6506 TO1    89.306000   21.557000  -73.079000 T    2169 GLP    -0.6000 ****
6507 HO1    96.914000   23.394000  -79.304000 H    2169 GLP     0.4000 ****
6508 TO2    79.562000   26.882000  -66.934000 T    2170 GLP     0.6000 ****
6509 TO1    86.971000   29.385000  -73.167000 T    2170 GLP    -0.6000 ****
6510 HO1    94.380000   31.888000  -79.399000 H    2170 GLP     0.4000 ****
6511 TO2    76.798000   33.825000  -67.014000 T    2171 GLP     0.6000 ****
6512 TO1    83.949000   36.974000  -73.254000 T    2171 GLP    -0.6000 ****
6513 HO1    91.101000   40.124000  -79.495000 H    2171 GLP     0.4000 ****
6514 TO2    73.427000   40.494000  -67.095000 T    2172 GLP     0.6000 ****
6515 TO1    80.264000   44.264000  -73.342000 T    2172 GLP    -0.6000 ****
6516 HO1    87.102000   48.035000  -79.590000 H    2172 GLP     0.4000 ****
6517 TO2    69.476000   46.836000  -67.175000 T    2173 GLP     0.6000 ****
6518 TO1    75.945000   51.197000  -73.430000 T    2173 GLP    -0.6000 ****
6519 HO1    82.414000   55.559000  -79.685000 H    2173 GLP     0.4000 ****
6520 TO2    64.975000   52.801000  -67.255000 T    2174 GLP     0.6000 ****
6521 TO1    71.025000   57.718000  -73.518000 T    2174 GLP    -0.6000 ****
6522 HO1    77.075000   62.635000  -79.781000 H    2174 GLP     0.4000 ****
6523 TO2    59.960000   58.341000  -67.336000 T    2175 GLP     0.6000 ****
6524 TO1    65.543000   63.774000  -73.606000 T    2175 GLP    -0.6000 ****
6525 HO1    71.126000   69.206000  -79.876000 H    2175 GLP     0.4000 ****
6526 TO2    54.470000   63.412000  -67.416000 T    2176 GLP     0.6000 ****
6527 TO1    59.542000   69.316000  -73.694000 T    2176 GLP    -0.6000 ****
6528 HO1    64.614000   75.221000  -79.971000 H    2176 GLP     0.4000 ****
6529 TO2    48.550000   67.971000  -67.496000 T    2177 GLP     0.6000 ****
6530 TO1    53.071000   74.301000  -73.782000 T    2177 GLP    -0.6000 ****
6531 HO1    57.592000   80.630000  -80.067000 H    2177 GLP     0.4000 ****
6532 TO2    42.246000   71.984000  -67.577000 T    2178 GLP     0.6000 ****
6533 TO1    46.180000   78.687000  -73.869000 T    2178 GLP    -0.6000 ****
6534 HO1    50.113000   85.389000  -80.162000 H    2178 GLP     0.4000 ****
6535 TO2    35.608000   75.416000  -67.657000 T    2179 GLP     0.6000 ****
6536 TO1    38.924000   82.438000  -73.957000 T    2179 GLP    -0.6000 ****
6537 HO1    42.239000   89.461000  -80.257000 H    2179 GLP     0.4000 ****
6538 TO2    28.690000   78.240000  -67.737000 T    2180 GLP     0.6000 ****
6539 TO1    31.361000   85.526000  -74.045000 T    2180 GLP    -0.6000 ****
6540 HO1    34.033000   92.811000  -80.353000 H    2180 GLP     0.4000 ****
6541 TO2    21.546000   80.433000  -67.818000 T    2181 GLP     0.6000 ****
6542 TO1    23.552000   87.923000  -74.133000 T    2181 GLP    -0.6000 ****
6543 HO1    25.559000   95.412000  -80.448000 H    2181 GLP     0.4000 ****
6544 TO2    14.235000   81.977000  -67.898000 T    2182 GLP     0.6000 ****
6545 TO1    15.560000   89.610000  -74.221000 T    2182 GLP    -0.6000 ****
6546 HO1    16.885000   97.244000  -80.543000 H    2182 GLP     0.4000 ****
6547 TO2     6.814000   82.858000  -67.979000 T    2183 GLP     0.6000 ****
6548 TO1     7.449000   90.574000  -74.309000 T    2183 GLP    -0.6000 ****
6549 HO1     8.083000   98.289000  -80.638000 H    2183 GLP     0.4000 ****
6550 TO2    -0.656000   83.069000  -68.059000 T    2184 GLP     0.6000 ****
6551 TO1    -0.717000   90.805000  -74.396000 T    2184 GLP    -0.6000 ****
6552 HO1    -0.778000   98.540000  -80.734000 H    2184 GLP     0.4000 ****
6553 TO2    -8.114000   82.609000  -68.139000 T    2185 GLP     0.6000 ****
6554 TO1    -8.869000   90.301000  -74.484000 T    2185 GLP    -0.6000 ****
6555 HO1    -9.625000   97.993000  -80.829000 H    2185 GLP     0.4000 ****
6556 TO2   -15.501000   81.479000  -68.220000 T    2186 GLP     0.6000 ****
6557 TO1   -16.944000   89.066000  -74.572000 T    2186 GLP    -0.6000 ****
6558 HO1   -18.387000   96.653000  -80.924000 H    2186 GLP     0.4000 ****
6559 TO2   -22.756000   79.689000  -68.300000 T    2187 GLP     0.6000 ****
6560 TO1   -24.875000   87.109000  -74.660000 T    2187 GLP    -0.6000 ****
6561 HO1   -26.993000   94.529000  -81.020000 H    2187 GLP     0.4000 ****
6562 TO2   -29.820000   77.252000  -68.380000 T    2188 GLP     0.6000 ****
6563 TO1   -32.597000   84.446000  -74.748000 T    2188 GLP    -0.6000 ****
6564 HO1   -35.373000   91.639000  -81.115000 H    2188 GLP     0.4000 ****
6565 TO2   -36.636000   74.189000  -68.461000 T    2189 GLP     0.6000 ****
6566 TO1   -40.047000   81.097000  -74.836000 T    2189 GLP    -0.6000 ****
6567 HO1   -43.458000   88.005000  -81.210000 H    2189 GLP     0.4000 ****
6568 TO2   -43.147000   70.523000  -68.541000 T    2190 GLP     0.6000 ****
6569 TO1   -47.165000   77.089000  -74.923000 T    2190 GLP    -0.6000 ****
6570 HO1   -51.182000   83.656000  -81.306000 H    2190 GLP     0.4000 ****
6571 TO2   -49.301000   66.284000  -68.621000 T    2191 GLP     0.6000 ****
6572 TO1   -53.892000   72.456000  -75.011000 T    2191 GLP    -0.6000 ****
6573 HO1   -58.482000   78.628000  -81.401000 H    2191 GLP     0.4000 ****
6574 TO2   -55.046000   61.506000  -68.702000 T    2192 GLP     0.6000 ****
6575 TO1   -60.172000   67.233000  -75.099000 T    2192 GLP    -0.6000 ****
6576 HO1   -65.298000   72.960000  -81.496000 H    2192 GLP     0.4000 ****
6577 TO2   -60.336000   56.228000  -68.782000 T    2193 GLP     0.6000 ****
6578 TO1   -65.954000   61.463000  -75.187000 T    2193 GLP    -0.6000 ****
6579 HO1   -71.573000   66.699000  -81.592000 H    2193 GLP     0.4000 ****
6580 TO2   -65.126000   50.493000  -68.862000 T    2194 GLP     0.6000 ****
6581 TO1   -71.191000   55.194000  -75.275000 T    2194 GLP    -0.6000 ****
6582 HO1   -77.255000   59.896000  -81.687000 H    2194 GLP     0.4000 ****
6583 TO2   -69.377000   44.347000  -68.943000 T    2195 GLP     0.6000 ****
6584 TO1   -75.837000   48.477000  -75.363000 T    2195 GLP    -0.6000 ****
6585 HO1   -82.298000   52.606000  -81.782000 H    2195 GLP     0.4000 ****
6586 TO2   -73.053000   37.841000  -69.023000 T    2196 GLP     0.6000 ****
6587 TO1   -79.856000   41.365000  -75.450000 T    2196 GLP    -0.6000 ****
6588 HO1   -86.658000   44.889000  -81.878000 H    2196 GLP     0.4000 ****
6589 TO2   -76.124000   31.029000  -69.103000 T    2197 GLP     0.6000 ****
6590 TO1   -83.213000   33.918000  -75.538000 T    2197 GLP    -0.6000 ****
6591 HO1   -90.301000   36.808000  -81.973000 H    2197 GLP     0.4000 ****
6592 TO2   -78.563000   23.966000  -69.184000 T    2198 GLP     0.6000 ****
6593 TO1   -85.879000   26.198000  -75.626000 T    2198 GLP    -0.6000 ****
6594 HO1   -93.195000   28.429000  -82.068000 H    2198 GLP     0.4000 ****
6595 TO2   -80.350000   16.710000  -69.264000 T    2199 GLP     0.6000 ****
6596 TO1   -87.832000   18.266000  -75.714000 T    2199 GLP    -0.6000 ****
6597 HO1   -95.315000   19.822000  -82.164000 H    2199 GLP     0.4000 ****
6598 TO2   -81.470000    9.322000  -69.345000 T    2200 GLP     0.6000 ****
6599 TO1   -89.056000   10.190000  -75.802000 T    2200 GLP    -0.6000 ****
6600 HO1   -96.643000   11.058000  -82.259000 H    2200 GLP     0.4000 ****
6601 TO2   -81.913000    1.863000  -69.425000 T    2201 GLP     0.6000 ****
6602 TO1   -89.540000    2.036000  -75.890000 T    2201 GLP    -0.6000 ****
6603 HO1   -97.168000    2.210000  -82.354000 H    2201 GLP     0.4000 ****
6604 TO2   -81.674000   -5.606000  -69.505000 T    2202 GLP     0.6000 ****
6605 TO1   -89.279000   -6.128000  -75.977000 T    2202 GLP    -0.6000 ****
6606 HO1   -96.884000   -6.650000  -82.450000 H    2202 GLP     0.4000 ****
6607 TO2   -80.754000  -13.021000  -69.586000 T    2203 GLP     0.6000 ****
6608 TO1   -88.274000  -14.234000  -76.065000 T    2203 GLP    -0.6000 ****
6609 HO1   -95.794000  -15.446000  -82.545000 H    2203 GLP     0.4000 ****
6610 TO2   -79.162000  -20.322000  -69.666000 T    2204 GLP     0.6000 ****
6611 TO1   -86.533000  -22.214000  -76.153000 T    2204 GLP    -0.6000 ****
6612 HO1   -93.905000  -24.107000  -82.640000 H    2204 GLP     0.4000 ****
6613 TO2   -76.910000  -27.447000  -69.746000 T    2205 GLP     0.6000 ****
6614 TO1   -84.071000  -30.003000  -76.241000 T    2205 GLP    -0.6000 ****
6615 HO1   -91.233000  -32.558000  -82.735000 H    2205 GLP     0.4000 ****
6616 TO2   -74.015000  -34.336000  -69.827000 T    2206 GLP     0.6000 ****
6617 TO1   -80.907000  -37.533000  -76.329000 T    2206 GLP    -0.6000 ****
6618 HO1   -87.799000  -40.730000  -82.831000 H    2206 GLP     0.4000 ****
6619 TO2   -70.503000  -40.931000  -69.907000 T    2207 GLP     0.6000 ****
6620 TO1   -77.068000  -44.742000  -76.417000 T    2207 GLP    -0.6000 ****
6621 HO1   -83.633000  -48.554000  -82.926000 H    2207 GLP     0.4000 ****
6622 TO2   -66.401000  -47.177000  -69.987000 T    2208 GLP     0.6000 ****
6623 TO1   -72.584000  -51.570000  -76.504000 T    2208 GLP    -0.6000 ****
6624 HO1   -78.767000  -55.963000  -83.021000 H    2208 GLP     0.4000 ****
6625 TO2   -61.744000  -53.021000  -70.068000 T    2209 GLP     0.6000 ****
6626 TO1   -67.493000  -57.958000  -76.592000 T    2209 GLP    -0.6000 ****
6627 HO1   -73.243000  -62.895000  -83.117000 H    2209 GLP     0.4000 ****
6628 TO2   -56.570000  -58.412000  -70.148000 T    2210 GLP     0.6000 ****
6629 TO1   -61.838000  -63.852000  -76.680000 T    2210 GLP    -0.6000 ****
6630 HO1   -67.106000  -69.291000  -83.212000 H    2210 GLP     0.4000 ****
6631 TO2   -50.924000  -63.306000  -70.228000 T    2211 GLP     0.6000 ****
6632 TO1   -55.666000  -69.201000  -76.768000 T    2211 GLP    -0.6000 ****
6633 HO1   -60.408000  -75.096000  -83.307000 H    2211 GLP     0.4000 ****
6634 TO2   -44.851000  -67.661000  -70.309000 T    2212 GLP     0.6000 ****
6635 TO1   -49.028000  -73.961000  -76.856000 T    2212 GLP    -0.6000 ****
6636 HO1   -53.204000  -80.262000  -83.403000 H    2212 GLP     0.4000 ****
6637 TO2   -38.404000  -71.438000  -70.389000 T    2213 GLP     0.6000 ****
6638 TO1   -41.981000  -78.090000  -76.944000 T    2213 GLP    -0.6000 ****
6639 HO1   -45.557000  -84.743000  -83.498000 H    2213 GLP     0.4000 ****
6640 TO2   -31.637000  -74.606000  -70.469000 T    2214 GLP     0.6000 ****
6641 TO1   -34.583000  -81.554000  -77.031000 T    2214 GLP    -0.6000 ****
6642 HO1   -37.529000  -88.501000  -83.593000 H    2214 GLP     0.4000 ****
6643 TO2   -24.607000  -77.138000  -70.550000 T    2215 GLP     0.6000 ****
6644 TO1   -26.898000  -84.320000  -77.119000 T    2215 GLP    -0.6000 ****
6645 HO1   -29.189000  -91.503000  -83.689000 H    2215 GLP     0.4000 ****
6646 TO2   -17.373000  -79.010000  -70.630000 T    2216 GLP     0.6000 ****
6647 TO1   -18.990000  -86.367000  -77.207000 T    2216 GLP    -0.6000 ****
6648 HO1   -20.608000  -93.724000  -83.784000 H    2216 GLP     0.4000 ****
6649 TO2    -9.997000  -80.206000  -70.711000 T    2217 GLP     0.6000 ****
6650 TO1   -10.928000  -87.675000  -77.295000 T    2217 GLP    -0.6000 ****
6651 HO1   -11.859000  -95.143000  -83.879000 H    2217 GLP     0.4000 ****
6652 TO2    -2.542000  -80.716000  -70.791000 T    2218 GLP     0.6000 ****
6653 TO1    -2.779000  -88.233000  -77.383000 T    2218 GLP    -0.6000 ****
6654 HO1    -3.015000  -95.749000  -83.975000 H    2218 GLP     0.4000 ****
6655 TO2     4.928000  -80.535000  -70.871000 T    2219 GLP     0.6000 ****
6656 TO1     5.387000  -88.035000  -77.471000 T    2219 GLP    -0.6000 ****
6657 HO1     5.846000  -95.534000  -84.070000 H    2219 GLP     0.4000 ****
6658 TO2    12.349000  -79.664000  -70.952000 T    2220 GLP     0.6000 ****
6659 TO1    13.499000  -87.082000  -77.558000 T    2220 GLP    -0.6000 ****
6660 HO1    14.649000  -94.500000  -84.165000 H    2220 GLP     0.4000 ****
6661 TO2    19.658000  -78.109000  -71.032000 T    2221 GLP     0.6000 ****
6662 TO1    21.488000  -85.382000  -77.646000 T    2221 GLP    -0.6000 ****
6663 HO1    23.319000  -92.655000  -84.261000 H    2221 GLP     0.4000 ****
6664 TO2    26.791000  -75.883000  -71.112000 T    2222 GLP     0.6000 ****
6665 TO1    29.285000  -82.949000  -77.734000 T    2222 GLP    -0.6000 ****
6666 HO1    31.780000  -90.015000  -84.356000 H    2222 GLP     0.4000 ****
6667 TO2    33.686000  -73.005000  -71.193000 T    2223 GLP     0.6000 ****
6668 TO1    36.823000  -79.804000  -77.822000 T    2223 GLP    -0.6000 ****
6669 HO1    39.960000  -86.602000  -84.451000 H    2223 GLP     0.4000 ****
6670 TO2    40.285000  -69.500000  -71.273000 T    2224 GLP     0.6000 ****
6671 TO1    44.036000  -75.971000  -77.910000 T    2224 GLP    -0.6000 ****
6672 HO1    47.788000  -82.443000  -84.546000 H    2224 GLP     0.4000 ****
6673 TO2    46.530000  -65.396000  -71.353000 T    2225 GLP     0.6000 ****
6674 TO1    50.862000  -71.486000  -77.998000 T    2225 GLP    -0.6000 ****
6675 HO1    55.195000  -77.575000  -84.642000 H    2225 GLP     0.4000 ****
6676 TO2    52.365000  -60.730000  -71.434000 T    2226 GLP     0.6000 ****
6677 TO1    57.241000  -66.384000  -78.085000 T    2226 GLP    -0.6000 ****
6678 HO1    62.117000  -72.039000  -84.737000 H    2226 GLP     0.4000 ****
6679 TO2    57.741000  -55.540000  -71.514000 T    2227 GLP     0.6000 ****
6680 TO1    63.118000  -60.712000  -78.173000 T    2227 GLP    -0.6000 ****
6681 HO1    68.494000  -65.883000  -84.832000 H    2227 GLP     0.4000 ****
6682 TO2    62.610000  -49.872000  -71.594000 T    2228 GLP     0.6000 ****
6683 TO1    68.440000  -54.516000  -78.261000 T    2228 GLP    -0.6000 ****
6684 HO1    74.270000  -59.160000  -84.928000 H    2228 GLP     0.4000 ****
6685 TO2    66.929000  -43.775000  -71.675000 T    2229 GLP     0.6000 ****
6686 TO1    73.161000  -47.851000  -78.349000 T    2229 GLP    -0.6000 ****
6687 HO1    79.393000  -51.927000  -85.023000 H    2229 GLP     0.4000 ****
6688 TO2    70.660000  -37.301000  -71.755000 T    2230 GLP     0.6000 ****
6689 TO1    77.240000  -40.774000  -78.437000 T    2230 GLP    -0.6000 ****
6690 HO1    83.819000  -44.247000  -85.118000 H    2230 GLP     0.4000 ****
6691 TO2    73.770000  -30.507000  -71.835000 T    2231 GLP     0.6000 ****
6692 TO1    80.639000  -33.347000  -78.525000 T    2231 GLP    -0.6000 ****
6693 HO1    87.508000  -36.188000  -85.214000 H    2231 GLP     0.4000 ****
6694 TO2    76.231000  -23.451000  -71.916000 T    2232 GLP     0.6000 ****
6695 TO1    83.329000  -25.635000  -78.612000 T    2232 GLP    -0.6000 ****
6696 HO1    90.427000  -27.819000  -85.309000 H    2232 GLP     0.4000 ****
6697 TO2    78.020000  -16.197000  -71.996000 T    2233 GLP     0.6000 ****
6698 TO1    85.285000  -17.705000  -78.700000 T    2233 GLP    -0.6000 ****
6699 HO1    92.550000  -19.213000  -85.404000 H    2233 GLP     0.4000 ****
6700 TO2    79.123000   -8.807000  -72.077000 T    2234 GLP     0.6000 ****
6701 TO1    86.490000   -9.627000  -78.788000 T    2234 GLP    -0.6000 ****
6702 HO1    93.858000  -10.447000  -85.500000 H    2234 GLP     0.4000 ****
6703 TO2    79.527000   -1.346000  -72.157000 T    2235 GLP     0.6000 ****
6704 TO1    86.932000   -1.471000  -78.876000 T    2235 GLP    -0.6000 ****
6705 HO1    94.338000   -1.596000  -85.595000 H    2235 GLP     0.4000 ****
6706 TO2    79.229000    6.120000  -72.237000 T    2236 GLP     0.6000 ****
6707 TO1    86.607000    6.690000  -78.964000 T    2236 GLP    -0.6000 ****
6708 HO1    93.985000    7.260000  -85.690000 H    2236 GLP     0.4000 ****
6709 TO2    78.232000   13.526000  -72.318000 T    2237 GLP     0.6000 ****
6710 TO1    85.516000   14.785000  -79.052000 T    2237 GLP    -0.6000 ****
6711 HO1    92.801000   16.044000  -85.786000 H    2237 GLP     0.4000 ****
6712 TO2    76.542000   20.804000  -72.398000 T    2238 GLP     0.6000 ****
6713 TO1    83.670000   22.741000  -79.139000 T    2238 GLP    -0.6000 ****
6714 HO1    90.797000   24.678000  -85.881000 H    2238 GLP     0.4000 ****
6715 TO2    74.175000   27.891000  -72.478000 T    2239 GLP     0.6000 ****
6716 TO1    81.082000   30.488000  -79.227000 T    2239 GLP    -0.6000 ****
6717 HO1    87.989000   33.085000  -85.976000 H    2239 GLP     0.4000 ****
6718 TO2    71.151000   34.724000  -72.559000 T    2240 GLP     0.6000 ****
6719 TO1    77.776000   37.957000  -79.315000 T    2240 GLP    -0.6000 ****
6720 HO1    84.402000   41.190000  -86.072000 H    2240 GLP     0.4000 ****
6721 TO2    67.496000   41.241000  -72.639000 T    2241 GLP     0.6000 ****
6722 TO1    73.781000   45.081000  -79.403000 T    2241 GLP    -0.6000 ****
6723 HO1    80.066000   48.921000  -86.167000 H    2241 GLP     0.4000 ****
6724 TO2    63.243000   47.384000  -72.719000 T    2242 GLP     0.6000 ****
6725 TO1    69.132000   51.796000  -79.491000 T    2242 GLP    -0.6000 ****
6726 HO1    75.021000   56.208000  -86.262000 H    2242 GLP     0.4000 ****
6727 TO2    58.428000   53.097000  -72.800000 T    2243 GLP     0.6000 ****
6728 TO1    63.869000   58.042000  -79.579000 T    2243 GLP    -0.6000 ****
6729 HO1    69.309000   62.986000  -86.358000 H    2243 GLP     0.4000 ****
6730 TO2    53.095000   58.330000  -72.880000 T    2244 GLP     0.6000 ****
6731 TO1    58.039000   63.762000  -79.666000 T    2244 GLP    -0.6000 ****
6732 HO1    62.983000   69.193000  -86.453000 H    2244 GLP     0.4000 ****
6733 TO2    47.290000   63.035000  -72.960000 T    2245 GLP     0.6000 ****
6734 TO1    51.693000   68.905000  -79.754000 T    2245 GLP    -0.6000 ****
6735 HO1    56.097000   74.774000  -86.548000 H    2245 GLP     0.4000 ****
6736 TO2    41.066000   67.169000  -73.041000 T    2246 GLP     0.6000 ****
6737 TO1    44.890000   73.423000  -79.842000 T    2246 GLP    -0.6000 ****
6738 HO1    48.713000   79.678000  -86.643000 H    2246 GLP     0.4000 ****
6739 TO2    34.477000   70.693000  -73.121000 T    2247 GLP     0.6000 ****
6740 TO1    37.688000   77.276000  -79.930000 T    2247 GLP    -0.6000 ****
6741 HO1    40.898000   83.859000  -86.739000 H    2247 GLP     0.4000 ****
6742 TO2    27.585000   73.577000  -73.201000 T    2248 GLP     0.6000 ****
6743 TO1    30.153000   80.428000  -80.018000 T    2248 GLP    -0.6000 ****
6744 HO1    32.722000   87.280000  -86.834000 H    2248 GLP     0.4000 ****
6745 TO2    20.449000   75.793000  -73.282000 T    2249 GLP     0.6000 ****
6746 TO1    22.353000   82.851000  -80.106000 T    2249 GLP    -0.6000 ****
6747 HO1    24.257000   89.908000  -86.929000 H    2249 GLP     0.4000 ****
6748 TO2    13.135000   77.320000  -73.362000 T    2250 GLP     0.6000 ****
6749 TO1    14.358000   84.520000  -80.193000 T    2250 GLP    -0.6000 ****
6750 HO1    15.581000   91.720000  -87.025000 H    2250 GLP     0.4000 ****
6751 TO2     5.709000   78.145000  -73.443000 T    2251 GLP     0.6000 ****
6752 TO1     6.240000   85.421000  -80.281000 T    2251 GLP    -0.6000 ****
6753 HO1     6.772000   92.698000  -87.120000 H    2251 GLP     0.4000 ****
6754 TO2    -1.762000   78.258000  -73.523000 T    2252 GLP     0.6000 ****
6755 TO1    -1.926000   85.545000  -80.369000 T    2252 GLP    -0.6000 ****
6756 HO1    -2.090000   92.832000  -87.215000 H    2252 GLP     0.4000 ****
6757 TO2    -9.210000   77.658000  -73.603000 T    2253 GLP     0.6000 ****
6758 TO1   -10.067000   84.889000  -80.457000 T    2253 GLP    -0.6000 ****
6759 HO1   -10.925000   92.120000  -87.311000 H    2253 GLP     0.4000 ****
6760 TO2   -16.566000   76.350000  -73.684000 T    2254 GLP     0.6000 ****
6761 TO1   -18.109000   83.459000  -80.545000 T    2254 GLP    -0.6000 ****
6762 HO1   -19.651000   90.568000  -87.406000 H    2254 GLP     0.4000 ****
6763 TO2   -23.764000   74.345000  -73.764000 T    2255 GLP     0.6000 ****
6764 TO1   -25.977000   81.267000  -80.633000 T    2255 GLP    -0.6000 ****
6765 HO1   -28.189000   88.190000  -87.501000 H    2255 GLP     0.4000 ****
6766 TO2   -30.737000   71.661000  -73.844000 T    2256 GLP     0.6000 ****
6767 TO1   -33.599000   78.333000  -80.720000 T    2256 GLP    -0.6000 ****
6768 HO1   -36.461000   85.006000  -87.597000 H    2256 GLP     0.4000 ****
6769 TO2   -37.421000   68.321000  -73.925000 T    2257 GLP     0.6000 ****
6770 TO1   -40.905000   74.683000  -80.808000 T    2257 GLP    -0.6000 ****
6771 HO1   -44.390000   81.045000  -87.692000 H    2257 GLP     0.4000 ****
6772 TO2   -43.754000   64.357000  -74.005000 T    2258 GLP     0.6000 ****
6773 TO1   -47.828000   70.350000  -80.896000 T    2258 GLP    -0.6000 ****
6774 HO1   -51.902000   76.343000  -87.787000 H    2258 GLP     0.4000 ****
6775 TO2   -49.678000   59.804000  -74.085000 T    2259 GLP     0.6000 ****
6776 TO1   -54.303000   65.372000  -80.984000 T    2259 GLP    -0.6000 ****
6777 HO1   -58.929000   70.941000  -87.883000 H    2259 GLP     0.4000 ****
6778 TO2   -55.137000   54.702000  -74.166000 T    2260 GLP     0.6000 ****
6779 TO1   -60.271000   59.796000  -81.072000 T    2260 GLP    -0.6000 ****
6780 HO1   -65.405000   64.890000  -87.978000 H    2260 GLP     0.4000 ****
6781 TO2   -60.080000   49.100000  -74.246000 T    2261 GLP     0.6000 ****
6782 TO1   -65.675000   53.672000  -81.160000 T    2261 GLP    -0.6000 ****
6783 HO1   -71.270000   58.244000  -88.073000 H    2261 GLP     0.4000 ****
6784 TO2   -64.462000   43.048000  -74.326000 T    2262 GLP     0.6000 ****
6785 TO1   -70.465000   47.057000  -81.247000 T    2262 GLP    -0.6000 ****
6786 HO1   -76.467000   51.065000  -88.169000 H    2262 GLP     0.4000 ****
6787 TO2   -68.241000   36.603000  -74.407000 T    2263 GLP     0.6000 ****
6788 TO1   -74.595000   40.011000  -81.335000 T    2263 GLP    -0.6000 ****
6789 HO1   -80.950000   43.419000  -88.264000 H    2263 GLP     0.4000 ****
6790 TO2   -71.381000   29.823000  -74.487000 T    2264 GLP     0.6000 ****
6791 TO1   -78.028000   32.600000  -81.423000 T    2264 GLP    -0.6000 ****
6792 HO1   -84.674000   35.377000  -88.359000 H    2264 GLP     0.4000 ****
6793 TO2   -73.852000   22.772000  -74.567000 T    2265 GLP     0.6000 ****
6794 TO1   -80.729000   24.892000  -81.511000 T    2265 GLP    -0.6000 ****
6795 HO1   -87.606000   27.013000  -88.455000 H    2265 GLP     0.4000 ****
6796 TO2   -75.630000   15.515000  -74.648000 T    2266 GLP     0.6000 ****
6797 TO1   -82.673000   16.960000  -81.599000 T    2266 GLP    -0.6000 ****
6798 HO1   -89.715000   18.404000  -88.550000 H    2266 GLP     0.4000 ****
6799 TO2   -76.699000    8.120000  -74.728000 T    2267 GLP     0.6000 ****
6800 TO1   -83.841000    8.876000  -81.687000 T    2267 GLP    -0.6000 ****
6801 HO1   -90.983000    9.633000  -88.645000 H    2267 GLP     0.4000 ****
6802 TO2   -77.047000    0.657000  -74.809000 T    2268 GLP     0.6000 ****
6803 TO1   -84.221000    0.718000  -81.775000 T    2268 GLP    -0.6000 ****
6804 HO1   -91.396000    0.779000  -88.740000 H    2268 GLP     0.4000 ****
6805 TO2   -76.670000   -6.805000  -74.889000 T    2269 GLP     0.6000 ****
6806 TO1   -83.809000   -7.439000  -81.862000 T    2269 GLP    -0.6000 ****
6807 HO1   -90.949000   -8.072000  -88.836000 H    2269 GLP     0.4000 ****
6808 TO2   -75.572000  -14.195000  -74.969000 T    2270 GLP     0.6000 ****
6809 TO1   -82.609000  -15.517000  -81.950000 T    2270 GLP    -0.6000 ****
6810 HO1   -89.646000  -16.839000  -88.931000 H    2270 GLP     0.4000 ****
6811 TO2   -73.761000  -21.444000  -75.050000 T    2271 GLP     0.6000 ****
6812 TO1   -80.629000  -23.441000  -82.038000 T    2271 GLP    -0.6000 ****
6813 HO1   -87.498000  -25.438000  -89.026000 H    2271 GLP     0.4000 ****
6814 TO2   -71.255000  -28.482000  -75.130000 T    2272 GLP     0.6000 ****
6815 TO1   -77.890000  -31.135000  -82.126000 T    2272 GLP    -0.6000 ****
6816 HO1   -84.525000  -33.787000  -89.122000 H    2272 GLP     0.4000 ****
6817 TO2   -68.075000  -35.244000  -75.210000 T    2273 GLP     0.6000 ****
6818 TO1   -74.414000  -38.526000  -82.214000 T    2273 GLP    -0.6000 ****
6819 HO1   -80.753000  -41.807000  -89.217000 H    2273 GLP     0.4000 ****
6820 TO2   -64.253000  -41.663000  -75.291000 T    2274 GLP     0.6000 ****
6821 TO1   -70.236000  -45.543000  -82.302000 T    2274 GLP    -0.6000 ****
6822 HO1   -76.219000  -49.423000  -89.312000 H    2274 GLP     0.4000 ****
6823 TO2   -59.823000  -47.680000  -75.371000 T    2275 GLP     0.6000 ****
6824 TO1   -65.394000  -52.120000  -82.389000 T    2275 GLP    -0.6000 ****
6825 HO1   -70.964000  -56.559000  -89.408000 H    2275 GLP     0.4000 ****
6826 TO2   -54.827000  -53.235000  -75.451000 T    2276 GLP     0.6000 ****
6827 TO1   -59.933000  -58.193000  -82.477000 T    2276 GLP    -0.6000 ****
6828 HO1   -65.038000  -63.150000  -89.503000 H    2276 GLP     0.4000 ****
6829 TO2   -49.313000  -58.276000  -75.532000 T    2277 GLP     0.6000 ****
6830 TO1   -53.905000  -63.703000  -82.565000 T    2277 GLP    -0.6000 ****
6831 HO1   -58.497000  -69.130000  -89.598000 H    2277 GLP     0.4000 ****
6832 TO2   -43.332000  -62.754000  -75.612000 T    2278 GLP     0.6000 ****
6833 TO1   -47.367000  -68.598000  -82.653000 T    2278 GLP    -0.6000 ****
6834 HO1   -51.402000  -74.441000  -89.694000 H    2278 GLP     0.4000 ****
6835 TO2   -36.942000  -66.625000  -75.692000 T    2279 GLP     0.6000 ****
6836 TO1   -40.382000  -72.829000  -82.741000 T    2279 GLP    -0.6000 ****
6837 HO1   -43.822000  -79.033000  -89.789000 H    2279 GLP     0.4000 ****
6838 TO2   -30.203000  -69.851000  -75.773000 T    2280 GLP     0.6000 ****
6839 TO1   -33.015000  -76.356000  -82.829000 T    2280 GLP    -0.6000 ****
6840 HO1   -35.828000  -82.860000  -89.884000 H    2280 GLP     0.4000 ****
6841 TO2   -23.180000  -72.401000  -75.853000 T    2281 GLP     0.6000 ****
6842 TO1   -25.339000  -79.143000  -82.916000 T    2281 GLP    -0.6000 ****
6843 HO1   -27.497000  -85.885000  -89.980000 H    2281 GLP     0.4000 ****
6844 TO2   -15.941000  -74.249000  -75.933000 T    2282 GLP     0.6000 ****
6845 TO1   -17.426000  -81.163000  -83.004000 T    2282 GLP    -0.6000 ****
6846 HO1   -18.910000  -88.077000  -90.075000 H    2282 GLP     0.4000 ****
6847 TO2    -8.556000  -75.377000  -76.014000 T    2283 GLP     0.6000 ****
6848 TO1    -9.352000  -82.396000  -83.092000 T    2283 GLP    -0.6000 ****
6849 HO1   -10.149000  -89.415000  -90.170000 H    2283 GLP     0.4000 ****
6850 TO2    -1.095000  -75.772000  -76.094000 T    2284 GLP     0.6000 ****
6851 TO1    -1.197000  -82.828000  -83.180000 T    2284 GLP    -0.6000 ****
6852 HO1    -1.299000  -89.884000  -90.266000 H    2284 GLP     0.4000 ****
6853 TO2     6.369000  -75.431000  -76.175000 T    2285 GLP     0.6000 ****
6854 TO1     6.962000  -82.455000  -83.268000 T    2285 GLP    -0.6000 ****
6855 HO1     7.555000  -89.479000  -90.361000 H    2285 GLP     0.4000 ****
6856 TO2    13.762000  -74.356000  -76.255000 T    2286 GLP     0.6000 ****
6857 TO1    15.043000  -81.279000  -83.356000 T    2286 GLP    -0.6000 ****
6858 HO1    16.325000  -88.203000  -90.456000 H    2286 GLP     0.4000 ****
6859 TO2    21.013000  -72.556000  -76.335000 T    2287 GLP     0.6000 ****
6860 TO1    22.970000  -79.312000  -83.443000 T    2287 GLP    -0.6000 ****
6861 HO1    24.927000  -86.068000  -90.551000 H    2287 GLP     0.4000 ****
6862 TO2    28.051000  -70.048000  -76.416000 T    2288 GLP     0.6000 ****
6863 TO1    30.663000  -76.571000  -83.531000 T    2288 GLP    -0.6000 ****
6864 HO1    33.275000  -83.094000  -90.647000 H    2288 GLP     0.4000 ****
6865 TO2    34.806000  -66.857000  -76.496000 T    2289 GLP     0.6000 ****
6866 TO1    38.047000  -73.083000  -83.619000 T    2289 GLP    -0.6000 ****
6867 HO1    41.288000  -79.308000  -90.742000 H    2289 GLP     0.4000 ****
6868 TO2    41.212000  -63.013000  -76.576000 T    2290 GLP     0.6000 ****
6869 TO1    45.050000  -68.880000  -83.707000 T    2290 GLP    -0.6000 ****
6870 HO1    48.887000  -74.748000  -90.837000 H    2290 GLP     0.4000 ****
6871 TO2    47.206000  -58.552000  -76.657000 T    2291 GLP     0.6000 ****
6872 TO1    51.601000  -64.004000  -83.795000 T    2291 GLP    -0.6000 ****
6873 HO1    55.997000  -69.456000  -90.933000 H    2291 GLP     0.4000 ****
6874 TO2    52.727000  -53.519000  -76.737000 T    2292 GLP     0.6000 ****
6875 TO1    57.637000  -58.502000  -83.883000 T    2292 GLP    -0.6000 ****
6876 HO1    62.547000  -63.486000  -91.028000 H    2292 GLP     0.4000 ****
6877 TO2    57.721000  -47.962000  -76.817000 T    2293 GLP     0.6000 ****
6878 TO1    63.096000  -52.428000  -83.970000 T    2293 GLP    -0.6000 ****
6879 HO1    68.470000  -56.894000  -91.123000 H    2293 GLP     0.4000 ****
6880 TO2    62.137000  -41.936000  -76.898000 T    2294 GLP     0.6000 ****
6881 TO1    67.923000  -45.841000  -84.058000 T    2294 GLP    -0.6000 ****
6882 HO1    73.710000  -49.746000  -91.219000 H    2294 GLP     0.4000 ****
6883 TO2    65.932000  -35.501000  -76.978000 T    2295 GLP     0.6000 ****
6884 TO1    72.072000  -38.806000  -84.146000 T    2295 GLP    -0.6000 ****
6885 HO1    78.211000  -42.112000  -91.314000 H    2295 GLP     0.4000 ****
6886 TO2    69.067000  -28.719000  -77.058000 T    2296 GLP     0.6000 ****
6887 TO1    75.498000  -31.393000  -84.234000 T    2296 GLP    -0.6000 ****
6888 HO1    81.929000  -34.067000  -91.409000 H    2296 GLP     0.4000 ****
6889 TO2    71.509000  -21.658000  -77.139000 T    2297 GLP     0.6000 ****
6890 TO1    78.167000  -23.675000  -84.322000 T    2297 GLP    -0.6000 ****
6891 HO1    84.826000  -25.692000  -91.505000 H    2297 GLP     0.4000 ****
6892 TO2    73.233000  -14.389000  -77.219000 T    2298 GLP     0.6000 ****
6893 TO1    80.053000  -15.729000  -84.410000 T    2298 GLP    -0.6000 ****
6894 HO1    86.872000  -17.069000  -91.600000 H    2298 GLP     0.4000 ****
6895 TO2    74.223000   -6.984000  -77.299000 T    2299 GLP     0.6000 ****
6896 TO1    81.134000   -7.634000  -84.497000 T    2299 GLP    -0.6000 ****
6897 HO1    88.045000   -8.285000  -91.695000 H    2299 GLP     0.4000 ****
6898 TO2    74.465000    0.483000  -77.380000 T    2300 GLP     0.6000 ****
6899 TO1    81.399000    0.528000  -84.585000 T    2300 GLP    -0.6000 ****
6900 HO1    88.333000    0.573000  -91.791000 H    2300 GLP     0.4000 ****
6901 TO2    73.959000    7.937000  -77.460000 T    2301 GLP     0.6000 ****
6902 TO1    80.846000    8.676000  -84.673000 T    2301 GLP    -0.6000 ****
6903 HO1    87.732000    9.415000  -91.886000 H    2301 GLP     0.4000 ****
6904 TO2    72.707000   15.302000  -77.541000 T    2302 GLP     0.6000 ****
6905 TO1    79.477000   16.727000  -84.761000 T    2302 GLP    -0.6000 ****
6906 HO1    86.247000   18.152000  -91.981000 H    2302 GLP     0.4000 ****
6907 TO2    70.721000   22.504000  -77.621000 T    2303 GLP     0.6000 ****
6908 TO1    77.307000   24.600000  -84.849000 T    2303 GLP    -0.6000 ****
6909 HO1    83.892000   26.695000  -92.077000 H    2303 GLP     0.4000 ****
6910 TO2    68.022000   29.470000  -77.701000 T    2304 GLP     0.6000 ****
6911 TO1    74.356000   32.215000  -84.937000 T    2304 GLP    -0.6000 ****
6912 HO1    80.690000   34.959000  -92.172000 H    2304 GLP     0.4000 ****
6913 TO2    64.635000   36.129000  -77.782000 T    2305 GLP     0.6000 ****
6914 TO1    70.653000   39.494000  -85.024000 T    2305 GLP    -0.6000 ****
6915 HO1    76.672000   42.858000  -92.267000 H    2305 GLP     0.4000 ****
6916 TO2    60.594000   42.413000  -77.862000 T    2306 GLP     0.6000 ****
6917 TO1    66.236000   46.362000  -85.112000 T    2306 GLP    -0.6000 ****
6918 HO1    71.879000   50.312000  -92.363000 H    2306 GLP     0.4000 ****
6919 TO2    55.940000   48.257000  -77.942000 T    2307 GLP     0.6000 ****
6920 TO1    61.149000   52.750000  -85.200000 T    2307 GLP    -0.6000 ****
6921 HO1    66.358000   57.244000  -92.458000 H    2307 GLP     0.4000 ****
6922 TO2    50.719000   53.601000  -78.023000 T    2308 GLP     0.6000 ****
6923 TO1    55.442000   58.592000  -85.288000 T    2308 GLP    -0.6000 ****
6924 HO1    60.164000   63.583000  -92.553000 H    2308 GLP     0.4000 ****
6925 TO2    44.984000   58.389000  -78.103000 T    2309 GLP     0.6000 ****
6926 TO1    49.173000   63.826000  -85.376000 T    2309 GLP    -0.6000 ****
6927 HO1    53.362000   69.263000  -92.648000 H    2309 GLP     0.4000 ****
6928 TO2    38.795000   62.572000  -78.183000 T    2310 GLP     0.6000 ****
6929 TO1    42.407000   68.399000  -85.464000 T    2310 GLP    -0.6000 ****
6930 HO1    46.020000   74.225000  -92.744000 H    2310 GLP     0.4000 ****
6931 TO2    32.213000   66.107000  -78.264000 T    2311 GLP     0.6000 ****
6932 TO1    35.213000   72.262000  -85.551000 T    2311 GLP    -0.6000 ****
6933 HO1    38.212000   78.418000  -92.839000 H    2311 GLP     0.4000 ****
6934 TO2    25.306000   68.955000  -78.344000 T    2312 GLP     0.6000 ****
6935 TO1    27.663000   75.376000  -85.639000 T    2312 GLP    -0.6000 ****
6936 HO1    30.019000   81.796000  -92.934000 H    2312 GLP     0.4000 ****
6937 TO2    18.146000   71.086000  -78.424000 T    2313 GLP     0.6000 ****
6938 TO1    19.836000   77.706000  -85.727000 T    2313 GLP    -0.6000 ****
6939 HO1    21.526000   84.325000  -93.030000 H    2313 GLP     0.4000 ****
6940 TO2    10.807000   72.479000  -78.505000 T    2314 GLP     0.6000 ****
6941 TO1    11.813000   79.228000  -85.815000 T    2314 GLP    -0.6000 ****
6942 HO1    12.819000   85.977000  -93.125000 H    2314 GLP     0.4000 ****
6943 TO2     3.363000   73.117000  -78.585000 T    2315 GLP     0.6000 ****
6944 TO1     3.676000   79.925000  -85.903000 T    2315 GLP    -0.6000 ****
6945 HO1     3.990000   86.733000  -93.220000 H    2315 GLP     0.4000 ****
6946 TO2    -4.106000   72.992000  -78.665000 T    2316 GLP     0.6000 ****
6947 TO1    -4.489000   79.789000  -85.991000 T    2316 GLP    -0.6000 ****
6948 HO1    -4.871000   86.586000  -93.316000 H    2316 GLP     0.4000 ****
6949 TO2   -11.524000   72.106000  -78.746000 T    2317 GLP     0.6000 ****
6950 TO1   -12.597000   78.820000  -86.078000 T    2317 GLP    -0.6000 ****
6951 HO1   -13.670000   85.534000  -93.411000 H    2317 GLP     0.4000 ****
6952 TO2   -18.813000   70.466000  -78.826000 T    2318 GLP     0.6000 ****
6953 TO1   -20.564000   77.028000  -86.166000 T    2318 GLP    -0.6000 ****
6954 HO1   -22.316000   83.589000  -93.506000 H    2318 GLP     0.4000 ****
6955 TO2   -25.895000   68.089000  -78.907000 T    2319 GLP     0.6000 ****
6956 TO1   -28.306000   74.430000  -86.254000 T    2319 GLP    -0.6000 ****
6957 HO1   -30.718000   80.770000  -93.602000 H    2319 GLP     0.4000 ****
6958 TO2   -32.697000   65.000000  -78.987000 T    2320 GLP     0.6000 ****
6959 TO1   -35.741000   71.052000  -86.342000 T    2320 GLP    -0.6000 ****
6960 HO1   -38.786000   77.105000  -93.697000 H    2320 GLP     0.4000 ****
6961 TO2   -39.146000   61.229000  -79.067000 T    2321 GLP     0.6000 ****
6962 TO1   -42.791000   66.930000  -86.430000 T    2321 GLP    -0.6000 ****
6963 HO1   -46.436000   72.632000  -93.792000 H    2321 GLP     0.4000 ****
6964 TO2   -45.173000   56.815000  -79.148000 T    2322 GLP     0.6000 ****
6965 TO1   -49.380000   62.106000  -86.518000 T    2322 GLP    -0.6000 ****
6966 HO1   -53.586000   67.396000  -93.888000 H    2322 GLP     0.4000 ****
6967 TO2   -50.715000   51.806000  -79.228000 T    2323 GLP     0.6000 ****
6968 TO1   -55.438000   56.630000  -86.605000 T    2323 GLP    -0.6000 ****
6969 HO1   -60.160000   61.454000  -93.983000 H    2323 GLP     0.4000 ****
6970 TO2   -55.712000   46.253000  -79.308000 T    2324 GLP     0.6000 ****
6971 TO1   -60.900000   50.560000  -86.693000 T    2324 GLP    -0.6000 ****
6972 HO1   -66.088000   54.867000  -94.078000 H    2324 GLP     0.4000 ****
6973 TO2   -60.110000   40.214000  -79.389000 T    2325 GLP     0.6000 ****
6974 TO1   -65.707000   43.959000  -86.781000 T    2325 GLP    -0.6000 ****
6975 HO1   -71.305000   47.703000  -94.174000 H    2325 GLP     0.4000 ****
6976 TO2   -63.862000   33.754000  -79.469000 T    2326 GLP     0.6000 ****
6977 TO1   -69.808000   36.897000  -86.869000 T    2326 GLP    -0.6000 ****
6978 HO1   -75.755000   40.040000  -94.269000 H    2326 GLP     0.4000 ****
6979 TO2   -66.926000   26.941000  -79.549000 T    2327 GLP     0.6000 ****
6980 TO1   -73.158000   29.450000  -86.957000 T    2327 GLP    -0.6000 ****
6981 HO1   -79.390000   31.958000  -94.364000 H    2327 GLP     0.4000 ****
6982 TO2   -69.269000   19.847000  -79.630000 T    2328 GLP     0.6000 ****
6983 TO1   -75.719000   21.696000  -87.045000 T    2328 GLP    -0.6000 ****
6984 HO1   -82.169000   23.544000  -94.460000 H    2328 GLP     0.4000 ****
6985 TO2   -70.865000   12.550000  -79.710000 T    2329 GLP     0.6000 ****
6986 TO1   -77.463000   13.718000  -87.132000 T    2329 GLP    -0.6000 ****
6987 HO1   -84.062000   14.887000  -94.555000 H    2329 GLP     0.4000 ****
6988 TO2   -71.695000    5.125000  -79.790000 T    2330 GLP     0.6000 ****
6989 TO1   -78.371000    5.603000  -87.220000 T    2330 GLP    -0.6000 ****
6990 HO1   -85.047000    6.080000  -94.650000 H    2330 GLP     0.4000 ****
6991 TO2   -71.750000   -2.345000  -79.871000 T    2331 GLP     0.6000 ****
6992 TO1   -78.432000   -2.563000  -87.308000 T    2331 GLP    -0.6000 ****
6993 HO1   -85.113000   -2.781000  -94.745000 H    2331 GLP     0.4000 ****
6994 TO2   -71.029000   -9.780000  -79.951000 T    2332 GLP     0.6000 ****
6995 TO1   -77.643000  -10.691000  -87.396000 T    2332 GLP    -0.6000 ****
6996 HO1   -84.257000  -11.601000  -94.841000 H    2332 GLP     0.4000 ****
6997 TO2   -69.538000  -17.100000  -80.031000 T    2333 GLP     0.6000 ****
6998 TO1   -76.013000  -18.692000  -87.484000 T    2333 GLP    -0.6000 ****
6999 HO1   -82.488000  -20.284000  -94.936000 H    2333 GLP     0.4000 ****
7000 TO2   -67.292000  -24.225000  -80.112000 T    2334 GLP     0.6000 ****
7001 TO1   -73.558000  -26.480000  -87.572000 T    2334 GLP    -0.6000 ****
7002 HO1   -79.824000  -28.736000  -95.031000 H    2334 GLP     0.4000 ****
7003 TO2   -64.315000  -31.076000  -80.192000 T    2335 GLP     0.6000 ****
7004 TO1   -70.304000  -33.970000  -87.659000 T    2335 GLP    -0.6000 ****
7005 HO1   -76.293000  -36.863000  -95.127000 H    2335 GLP     0.4000 ****
7006 TO2   -60.639000  -37.579000  -80.273000 T    2336 GLP     0.6000 ****
7007 TO1   -66.286000  -41.078000  -87.747000 T    2336 GLP    -0.6000 ****
7008 HO1   -71.932000  -44.578000  -95.222000 H    2336 GLP     0.4000 ****
7009 TO2   -56.303000  -43.662000  -80.353000 T    2337 GLP     0.6000 ****
7010 TO1   -61.546000  -47.728000  -87.835000 T    2337 GLP    -0.6000 ****
7011 HO1   -66.788000  -51.793000  -95.317000 H    2337 GLP     0.4000 ****
7012 TO2   -51.354000  -49.257000  -80.433000 T    2338 GLP     0.6000 ****
7013 TO1   -56.135000  -53.844000  -87.923000 T    2338 GLP    -0.6000 ****
7014 HO1   -60.917000  -58.431000  -95.413000 H    2338 GLP     0.4000 ****
7015 TO2   -45.845000  -54.303000  -80.514000 T    2339 GLP     0.6000 ****
7016 TO1   -50.114000  -59.359000  -88.011000 T    2339 GLP    -0.6000 ****
7017 HO1   -54.383000  -64.416000  -95.508000 H    2339 GLP     0.4000 ****
7018 TO2   -39.837000  -58.742000  -80.594000 T    2340 GLP     0.6000 ****
7019 TO1   -43.546000  -64.212000  -88.099000 T    2340 GLP    -0.6000 ****
7020 HO1   -47.256000  -69.682000  -95.603000 H    2340 GLP     0.4000 ****
7021 TO2   -33.395000  -62.525000  -80.674000 T    2341 GLP     0.6000 ****
7022 TO1   -36.505000  -68.347000  -88.186000 T    2341 GLP    -0.6000 ****
7023 HO1   -39.615000  -74.169000  -95.699000 H    2341 GLP     0.4000 ****
7024 TO2   -26.592000  -65.609000  -80.755000 T    2342 GLP     0.6000 ****
7025 TO1   -29.068000  -71.718000  -88.274000 T    2342 GLP    -0.6000 ****
7026 HO1   -31.544000  -77.828000  -95.794000 H    2342 GLP     0.4000 ****
7027 TO2   -19.501000  -67.959000  -80.835000 T    2343 GLP     0.6000 ****
7028 TO1   -21.317000  -74.287000  -88.362000 T    2343 GLP    -0.6000 ****
7029 HO1   -23.133000  -80.615000  -95.889000 H    2343 GLP     0.4000 ****
7030 TO2   -12.202000  -69.547000  -80.915000 T    2344 GLP     0.6000 ****
7031 TO1   -13.338000  -76.023000  -88.450000 T    2344 GLP    -0.6000 ****
7032 HO1   -14.474000  -82.499000  -95.985000 H    2344 GLP     0.4000 ****
7033 TO2    -4.776000  -70.355000  -80.996000 T    2345 GLP     0.6000 ****
7034 TO1    -5.220000  -76.906000  -88.538000 T    2345 GLP    -0.6000 ****
7035 HO1    -5.665000  -83.458000  -96.080000 H    2345 GLP     0.4000 ****
7036 TO2     2.694000  -70.373000  -81.076000 T    2346 GLP     0.6000 ****
7037 TO1     2.945000  -76.926000  -88.626000 T    2346 GLP    -0.6000 ****
7038 HO1     3.196000  -83.479000  -96.175000 H    2346 GLP     0.4000 ****
7039 TO2    10.124000  -69.600000  -81.156000 T    2347 GLP     0.6000 ****
7040 TO1    11.067000  -76.080000  -88.713000 T    2347 GLP    -0.6000 ****
7041 HO1    12.010000  -82.561000  -96.271000 H    2347 GLP     0.4000 ****
7042 TO2    17.430000  -68.042000  -81.237000 T    2348 GLP     0.6000 ****
7043 TO1    19.053000  -74.378000  -88.801000 T    2348 GLP    -0.6000 ****
7044 HO1    20.676000  -80.714000  -96.366000 H    2348 GLP     0.4000 ****
7045 TO2    24.529000  -65.718000  -81.317000 T    2349 GLP     0.6000 ****
7046 TO1    26.813000  -71.837000  -88.889000 T    2349 GLP    -0.6000 ****
7047 HO1    29.097000  -77.957000  -96.461000 H    2349 GLP     0.4000 ****
7048 TO2    31.340000  -62.651000  -81.397000 T    2350 GLP     0.6000 ****
7049 TO1    34.259000  -68.485000  -88.977000 T    2350 GLP    -0.6000 ****
7050 HO1    37.177000  -74.319000  -96.556000 H    2350 GLP     0.4000 ****
7051 TO2    37.787000  -58.877000  -81.478000 T    2351 GLP     0.6000 ****
7052 TO1    41.305000  -64.359000  -89.065000 T    2351 GLP    -0.6000 ****
7053 HO1    44.824000  -69.842000  -96.652000 H    2351 GLP     0.4000 ****
7054 TO2    43.793000  -54.437000  -81.558000 T    2352 GLP     0.6000 ****
7055 TO1    47.871000  -59.506000  -89.153000 T    2352 GLP    -0.6000 ****
7056 HO1    51.949000  -64.575000  -96.747000 H    2352 GLP     0.4000 ****
7057 TO2    49.292000  -49.381000  -81.639000 T    2353 GLP     0.6000 ****
7058 TO1    53.882000  -53.979000  -89.240000 T    2353 GLP    -0.6000 ****
7059 HO1    58.472000  -58.577000  -96.842000 H    2353 GLP     0.4000 ****
7060 TO2    54.218000  -43.765000  -81.719000 T    2354 GLP     0.6000 ****
7061 TO1    59.267000  -47.841000  -89.328000 T    2354 GLP    -0.6000 ****
7062 HO1    64.315000  -51.916000  -96.938000 H    2354 GLP     0.4000 ****
7063 TO2    58.515000  -37.655000  -81.799000 T    2355 GLP     0.6000 ****
7064 TO1    63.963000  -41.161000  -89.416000 T    2355 GLP    -0.6000 ****
7065 HO1    69.412000  -44.668000  -97.033000 H    2355 GLP     0.4000 ****
7066 TO2    62.131000  -31.119000  -81.880000 T    2356 GLP     0.6000 ****
7067 TO1    67.917000  -34.017000  -89.504000 T    2356 GLP    -0.6000 ****
7068 HO1    73.702000  -36.915000  -97.128000 H    2356 GLP     0.4000 ****
7069 TO2    65.025000  -24.233000  -81.960000 T    2357 GLP     0.6000 ****
7070 TO1    71.080000  -26.489000  -89.592000 T    2357 GLP    -0.6000 ****
7071 HO1    77.135000  -28.746000  -97.224000 H    2357 GLP     0.4000 ****
7072 TO2    67.162000  -17.076000  -82.040000 T    2358 GLP     0.6000 ****
7073 TO1    73.416000  -18.666000  -89.680000 T    2358 GLP    -0.6000 ****
7074 HO1    79.670000  -20.256000  -97.319000 H    2358 GLP     0.4000 ****
7075 TO2    68.516000   -9.730000  -82.121000 T    2359 GLP     0.6000 ****
7076 TO1    74.896000  -10.636000  -89.768000 T    2359 GLP    -0.6000 ****
7077 HO1    81.277000  -11.542000  -97.414000 H    2359 GLP     0.4000 ****
7078 TO2    69.071000   -2.281000  -82.201000 T    2360 GLP     0.6000 ****
7079 TO1    75.502000   -2.493000  -89.855000 T    2360 GLP    -0.6000 ****
7080 HO1    81.934000   -2.705000  -97.510000 H    2360 GLP     0.4000 ****
7081 TO2    68.818000    5.185000  -82.281000 T    2361 GLP     0.6000 ****
7082 TO1    75.226000    5.667000  -89.943000 T    2361 GLP    -0.6000 ****
7083 HO1    81.634000    6.150000  -97.605000 H    2361 GLP     0.4000 ****
7084 TO2    67.759000   12.579000  -82.362000 T    2362 GLP     0.6000 ****
7085 TO1    74.069000   13.750000  -90.031000 T    2362 GLP    -0.6000 ****
7086 HO1    80.378000   14.921000  -97.700000 H    2362 GLP     0.4000 ****
7087 TO2    65.906000   19.815000  -82.442000 T    2363 GLP     0.6000 ****
7088 TO1    72.043000   21.660000  -90.119000 T    2363 GLP    -0.6000 ****
7089 HO1    78.180000   23.505000  -97.796000 H    2363 GLP     0.4000 ****
7090 TO2    63.280000   26.808000  -82.522000 T    2364 GLP     0.6000 ****
7091 TO1    69.173000   29.304000  -90.207000 T    2364 GLP    -0.6000 ****
7092 HO1    75.065000   31.800000  -97.891000 H    2364 GLP     0.4000 ****
7093 TO2    59.910000   33.474000  -82.603000 T    2365 GLP     0.6000 ****
7094 TO1    65.489000   36.591000  -90.295000 T    2365 GLP    -0.6000 ****
7095 HO1    71.068000   39.708000  -97.986000 H    2365 GLP     0.4000 ****
7096 TO2    55.836000   39.734000  -82.683000 T    2366 GLP     0.6000 ****
7097 TO1    61.035000   43.434000  -90.382000 T    2366 GLP    -0.6000 ****
7098 HO1    66.235000   47.134000  -98.082000 H    2366 GLP     0.4000 ****
7099 TO2    51.104000   45.514000  -82.763000 T    2367 GLP     0.6000 ****
7100 TO1    55.863000   49.752000  -90.470000 T    2367 GLP    -0.6000 ****
7101 HO1    60.622000   53.990000  -98.177000 H    2367 GLP     0.4000 ****
7102 TO2    45.771000   50.743000  -82.844000 T    2368 GLP     0.6000 ****
7103 TO1    50.033000   55.468000  -90.558000 T    2368 GLP    -0.6000 ****
7104 HO1    54.295000   60.193000  -98.272000 H    2368 GLP     0.4000 ****
7105 TO2    39.899000   55.359000  -82.924000 T    2369 GLP     0.6000 ****
7106 TO1    43.614000   60.514000  -90.646000 T    2369 GLP    -0.6000 ****
7107 HO1    47.329000   65.669000  -98.368000 H    2369 GLP     0.4000 ****
7108 TO2    33.557000   59.305000  -83.005000 T    2370 GLP     0.6000 ****
7109 TO1    36.682000   64.828000  -90.734000 T    2370 GLP    -0.6000 ****
7110 HO1    39.806000   70.350000  -98.463000 H    2370 GLP     0.4000 ****
7111 TO2    26.821000   62.534000  -83.085000 T    2371 GLP     0.6000 ****
7112 TO1    29.319000   68.357000  -90.822000 T    2371 GLP    -0.6000 ****
7113 HO1    31.816000   74.180000  -98.558000 H    2371 GLP     0.4000 ****
7114 TO2    19.772000   65.004000  -83.165000 T    2372 GLP     0.6000 ****
7115 TO1    21.614000   71.057000  -90.909000 T    2372 GLP    -0.6000 ****
7116 HO1    23.455000   77.110000  -98.653000 H    2372 GLP     0.4000 ****
7117 TO2    12.495000   66.686000  -83.246000 T    2373 GLP     0.6000 ****
7118 TO1    13.658000   72.896000  -90.997000 T    2373 GLP    -0.6000 ****
7119 HO1    14.822000   79.105000  -98.749000 H    2373 GLP     0.4000 ****
7120 TO2     5.077000   67.557000  -83.326000 T    2374 GLP     0.6000 ****
7121 TO1     5.550000   73.848000  -91.085000 T    2374 GLP    -0.6000 ****
7122 HO1     6.022000   80.139000  -98.844000 H    2374 GLP     0.4000 ****
7123 TO2    -2.392000   67.606000  -83.406000 T    2375 GLP     0.6000 ****
7124 TO1    -2.615000   73.902000  -91.173000 T    2375 GLP    -0.6000 ****
7125 HO1    -2.838000   80.197000  -98.939000 H    2375 GLP     0.4000 ****
7126 TO2    -9.821000   66.832000  -83.487000 T    2376 GLP     0.6000 ****
7127 TO1   -10.736000   73.055000  -91.261000 T    2376 GLP    -0.6000 ****
7128 HO1   -11.650000   79.278000  -99.035000 H    2376 GLP     0.4000 ****
7129 TO2   -17.119000   65.242000  -83.567000 T    2377 GLP     0.6000 ****
7130 TO1   -18.713000   71.317000  -91.349000 T    2377 GLP    -0.6000 ****
7131 HO1   -20.307000   77.392000  -99.130000 H    2377 GLP     0.4000 ****
7132 TO2   -24.196000   62.854000  -83.647000 T    2378 GLP     0.6000 ****
7133 TO1   -26.449000   68.707000  -91.436000 T    2378 GLP    -0.6000 ****
7134 HO1   -28.702000   74.560000  -99.225000 H    2378 GLP     0.4000 ****
7135 TO2   -30.966000   59.697000  -83.728000 T    2379 GLP     0.6000 ****
7136 TO1   -33.849000   65.256000  -91.524000 T    2379 GLP    -0.6000 ****
7137 HO1   -36.732000   70.815000  -99.321000 H    2379 GLP     0.4000 ****
7138 TO2   -37.343000   55.809000  -83.808000 T    2380 GLP     0.6000 ****
7139 TO1   -40.820000   61.006000  -91.612000 T    2380 GLP    -0.6000 ****
7140 HO1   -44.297000   66.203000  -99.416000 H    2380 GLP     0.4000 ****
7141 TO2   -43.249000   51.237000  -83.888000 T    2381 GLP     0.6000 ****
7142 TO1   -47.276000   56.008000  -91.700000 T    2381 GLP    -0.6000 ****
7143 HO1   -51.303000   60.779000  -99.511000 H    2381 GLP     0.4000 ****
7144 TO2   -48.609000   46.036000  -83.969000 T    2382 GLP     0.6000 ****
7145 TO1   -53.136000   50.323000  -91.788000 T    2382 GLP    -0.6000 ****
7146 HO1   -57.662000   54.610000  -99.607000 H    2382 GLP     0.4000 ****
7147 TO2   -53.357000   40.270000  -84.049000 T    2383 GLP     0.6000 ****
7148 TO1   -58.326000   44.020000  -91.876000 T    2383 GLP    -0.6000 ****
7149 HO1   -63.294000   47.770000  -99.702000 H    2383 GLP     0.4000 ****
7150 TO2   -57.432000   34.011000  -84.129000 T    2384 GLP     0.6000 ****
7151 TO1   -62.780000   37.178000  -91.963000 T    2384 GLP    -0.6000 ****
7152 HO1   -68.128000   40.345000  -99.797000 H    2384 GLP     0.4000 ****
7153 TO2   -60.782000   27.335000  -84.210000 T    2385 GLP     0.6000 ****
7154 TO1   -66.442000   29.881000  -92.051000 T    2385 GLP    -0.6000 ****
7155 HO1   -72.102000   32.426000  -99.893000 H    2385 GLP     0.4000 ****
7156 TO2   -63.364000   20.327000  -84.290000 T    2386 GLP     0.6000 ****
7157 TO1   -69.264000   22.220000  -92.139000 T    2386 GLP    -0.6000 ****
7158 HO1   -75.164000   24.113000  -99.988000 H    2386 GLP     0.4000 ****
7159 TO2   -65.143000   13.073000  -84.371000 T    2387 GLP     0.6000 ****
7160 TO1   -71.209000   14.291000  -92.227000 T    2387 GLP    -0.6000 ****
7161 HO1   -77.275000   15.508000 -100.083000 H    2387 GLP     0.4000 ****
7162 TO2   -66.098000    5.666000  -84.451000 T    2388 GLP     0.6000 ****
7163 TO1   -72.253000    6.193000  -92.315000 T    2388 GLP    -0.6000 ****
7164 HO1   -78.407000    6.721000 -100.179000 H    2388 GLP     0.4000 ****
7165 TO2   -66.213000   -1.802000  -84.531000 T    2389 GLP     0.6000 ****
7166 TO1   -72.379000   -1.970000  -92.403000 T    2389 GLP    -0.6000 ****
7167 HO1   -78.544000   -2.138000 -100.274000 H    2389 GLP     0.4000 ****
7168 TO2   -65.487000   -9.235000  -84.612000 T    2390 GLP     0.6000 ****
7169 TO1   -71.585000  -10.095000  -92.490000 T    2390 GLP    -0.6000 ****
7170 HO1   -77.683000  -10.955000 -100.369000 H    2390 GLP     0.4000 ****
7171 TO2   -63.927000  -16.539000  -84.692000 T    2391 GLP     0.6000 ****
7172 TO1   -69.880000  -18.080000  -92.578000 T    2391 GLP    -0.6000 ****
7173 HO1   -75.833000  -19.620000 -100.464000 H    2391 GLP     0.4000 ****
7174 TO2   -61.552000  -23.621000  -84.772000 T    2392 GLP     0.6000 ****
7175 TO1   -67.284000  -25.820000  -92.666000 T    2392 GLP    -0.6000 ****
7176 HO1   -73.016000  -28.019000 -100.560000 H    2392 GLP     0.4000 ****
7177 TO2   -58.392000  -30.387000  -84.853000 T    2393 GLP     0.6000 ****
7178 TO1   -63.829000  -33.217000  -92.754000 T    2393 GLP    -0.6000 ****
7179 HO1   -69.266000  -36.047000 -100.655000 H    2393 GLP     0.4000 ****
7180 TO2   -54.485000  -36.753000  -84.933000 T    2394 GLP     0.6000 ****
7181 TO1   -59.558000  -40.175000  -92.842000 T    2394 GLP    -0.6000 ****
7182 HO1   -64.632000  -43.597000 -100.750000 H    2394 GLP     0.4000 ****
7183 TO2   -49.881000  -42.633000  -85.013000 T    2395 GLP     0.6000 ****
7184 TO1   -54.526000  -46.603000  -92.930000 T    2395 GLP    -0.6000 ****
7185 HO1   -59.170000  -50.573000 -100.846000 H    2395 GLP     0.4000 ****
7186 TO2   -44.638000  -47.953000  -85.094000 T    2396 GLP     0.6000 ****
7187 TO1   -48.795000  -52.418000  -93.017000 T    2396 GLP    -0.6000 ****
7188 HO1   -52.951000  -56.883000 -100.941000 H    2396 GLP     0.4000 ****
7189 TO2   -38.824000  -52.640000  -85.174000 T    2397 GLP     0.6000 ****
7190 TO1   -42.439000  -57.542000  -93.105000 T    2397 GLP    -0.6000 ****
7191 HO1   -46.055000  -62.444000 -101.036000 H    2397 GLP     0.4000 ****
7192 TO2   -32.514000  -56.635000  -85.254000 T    2398 GLP     0.6000 ****
7193 TO1   -35.541000  -61.909000  -93.193000 T    2398 GLP    -0.6000 ****
7194 HO1   -38.569000  -67.182000 -101.132000 H    2398 GLP     0.4000 ****
7195 TO2   -25.788000  -59.882000  -85.335000 T    2399 GLP     0.6000 ****
7196 TO1   -28.190000  -65.459000  -93.281000 T    2399 GLP    -0.6000 ****
7197 HO1   -30.591000  -71.035000 -101.227000 H    2399 GLP     0.4000 ****
7198 TO2   -18.736000  -62.339000  -85.415000 T    2400 GLP     0.6000 ****
7199 TO1   -20.480000  -68.144000  -93.369000 T    2400 GLP    -0.6000 ****
7200 HO1   -22.225000  -73.949000 -101.322000 H    2400 GLP     0.4000 ****
7201 TO2   -11.448000  -63.972000  -85.495000 T    2401 GLP     0.6000 ****
7202 TO1   -12.514000  -69.929000  -93.457000 T    2401 GLP    -0.6000 ****
7203 HO1   -13.580000  -75.886000 -101.418000 H    2401 GLP     0.4000 ****
7204 TO2    -4.021000  -64.758000  -85.576000 T    2402 GLP     0.6000 ****
7205 TO1    -4.395000  -70.788000  -93.544000 T    2402 GLP    -0.6000 ****
7206 HO1    -4.770000  -76.818000 -101.513000 H    2402 GLP     0.4000 ****
7207 TO2     3.447000  -64.685000  -85.656000 T    2403 GLP     0.6000 ****
7208 TO1     3.768000  -70.708000  -93.632000 T    2403 GLP    -0.6000 ****
7209 HO1     4.089000  -76.731000 -101.608000 H    2403 GLP     0.4000 ****
7210 TO2    10.857000  -63.752000  -85.737000 T    2404 GLP     0.6000 ****
7211 TO1    11.868000  -69.689000  -93.720000 T    2404 GLP    -0.6000 ****
7212 HO1    12.879000  -75.625000 -101.704000 H    2404 GLP     0.4000 ****
7213 TO2    18.110000  -61.972000  -85.817000 T    2405 GLP     0.6000 ****
7214 TO1    19.796000  -67.742000  -93.808000 T    2405 GLP    -0.6000 ****
7215 HO1    21.482000  -73.513000 -101.799000 H    2405 GLP     0.4000 ****
7216 TO2    25.108000  -59.365000  -85.897000 T    2406 GLP     0.6000 ****
7217 TO1    27.446000  -64.893000  -93.896000 T    2406 GLP    -0.6000 ****
7218 HO1    29.784000  -70.421000 -101.894000 H    2406 GLP     0.4000 ****
7219 TO2    31.758000  -55.966000  -85.978000 T    2407 GLP     0.6000 ****
7220 TO1    34.715000  -61.178000  -93.984000 T    2407 GLP    -0.6000 ****
7221 HO1    37.673000  -66.389000 -101.990000 H    2407 GLP     0.4000 ****
7222 TO2    37.969000  -51.820000  -86.058000 T    2408 GLP     0.6000 ****
7223 TO1    41.505000  -56.645000  -94.071000 T    2408 GLP    -0.6000 ****
7224 HO1    45.041000  -61.471000 -102.085000 H    2408 GLP     0.4000 ****
7225 TO2    43.657000  -46.981000  -86.138000 T    2409 GLP     0.6000 ****
7226 TO1    47.723000  -51.355000  -94.159000 T    2409 GLP    -0.6000 ****
7227 HO1    51.788000  -55.730000 -102.180000 H    2409 GLP     0.4000 ****
7228 TO2    48.744000  -41.513000  -86.219000 T    2410 GLP     0.6000 ****
7229 TO1    53.283000  -45.378000  -94.247000 T    2410 GLP    -0.6000 ****
7230 HO1    57.822000  -49.244000 -102.276000 H    2410 GLP     0.4000 ****
7231 TO2    53.159000  -35.490000  -86.299000 T    2411 GLP     0.6000 ****
7232 TO1    58.109000  -38.795000  -94.335000 T    2411 GLP    -0.6000 ****
7233 HO1    63.059000  -42.099000 -102.371000 H    2411 GLP     0.4000 ****
7234 TO2    56.842000  -28.993000  -86.379000 T    2412 GLP     0.6000 ****
7235 TO1    62.135000  -31.693000  -94.423000 T    2412 GLP    -0.6000 ****
7236 HO1    67.428000  -34.392000 -102.466000 H    2412 GLP     0.4000 ****
7237 TO2    59.740000  -22.110000  -86.460000 T    2413 GLP     0.6000 ****
7238 TO1    65.302000  -24.169000  -94.511000 T    2413 GLP    -0.6000 ****
7239 HO1    70.865000  -26.228000 -102.561000 H    2413 GLP     0.4000 ****
7240 TO2    61.812000  -14.936000  -86.540000 T    2414 GLP     0.6000 ****
7241 TO1    67.568000  -16.326000  -94.598000 T    2414 GLP    -0.6000 ****
7242 HO1    73.323000  -17.717000 -102.657000 H    2414 GLP     0.4000 ****
7243 TO2    63.029000   -7.567000  -86.620000 T    2415 GLP     0.6000 ****
7244 TO1    68.898000   -8.272000  -94.686000 T    2415 GLP    -0.6000 ****
7245 HO1    74.767000   -8.977000 -102.752000 H    2415 GLP     0.4000 ****
7246 TO2    63.371000   -0.108000  -86.701000 T    2416 GLP     0.6000 ****
7247 TO1    69.272000   -0.118000  -94.774000 T    2416 GLP    -0.6000 ****
7248 HO1    75.173000   -0.128000 -102.847000 H    2416 GLP     0.4000 ****
7249 TO2    62.834000    7.341000  -86.781000 T    2417 GLP     0.6000 ****
7250 TO1    68.685000    8.024000  -94.862000 T    2417 GLP    -0.6000 ****
7251 HO1    74.536000    8.708000 -102.943000 H    2417 GLP     0.4000 ****
7252 TO2    61.422000   14.674000  -86.861000 T    2418 GLP     0.6000 ****
7253 TO1    67.142000   16.040000  -94.950000 T    2418 GLP    -0.6000 ****
7254 HO1    72.861000   17.407000 -103.038000 H    2418 GLP     0.4000 ****
7255 TO2    59.155000   21.789000  -86.942000 T    2419 GLP     0.6000 ****
7256 TO1    64.663000   23.818000  -95.038000 T    2419 GLP    -0.6000 ****
7257 HO1    70.172000   25.847000 -103.133000 H    2419 GLP     0.4000 ****
7258 TO2    56.062000   28.586000  -87.022000 T    2420 GLP     0.6000 ****
7259 TO1    61.282000   31.248000  -95.125000 T    2420 GLP    -0.6000 ****
7260 HO1    66.503000   33.910000 -103.229000 H    2420 GLP     0.4000 ****
7261 TO2    52.185000   34.969000  -87.103000 T    2421 GLP     0.6000 ****
7262 TO1    57.045000   38.225000  -95.213000 T    2421 GLP    -0.6000 ****
7263 HO1    61.904000   41.481000 -103.324000 H    2421 GLP     0.4000 ****
7264 TO2    47.579000   40.846000  -87.183000 T    2422 GLP     0.6000 ****
7265 TO1    52.009000   44.649000  -95.301000 T    2422 GLP    -0.6000 ****
7266 HO1    56.439000   48.453000 -103.419000 H    2422 GLP     0.4000 ****
7267 TO2    42.306000   46.134000  -87.263000 T    2423 GLP     0.6000 ****
7268 TO1    46.245000   50.430000  -95.389000 T    2423 GLP    -0.6000 ****
7269 HO1    50.184000   54.725000 -103.515000 H    2423 GLP     0.4000 ****
7270 TO2    36.441000   50.756000  -87.344000 T    2424 GLP     0.6000 ****
7271 TO1    39.834000   55.482000  -95.477000 T    2424 GLP    -0.6000 ****
7272 HO1    43.227000   60.208000 -103.610000 H    2424 GLP     0.4000 ****
7273 TO2    30.066000   54.645000  -87.424000 T    2425 GLP     0.6000 ****
7274 TO1    32.865000   59.733000  -95.565000 T    2425 GLP    -0.6000 ****
7275 HO1    35.665000   64.822000 -103.705000 H    2425 GLP     0.4000 ****
7276 TO2    23.272000   57.744000  -87.504000 T    2426 GLP     0.6000 ****
7277 TO1    25.439000   63.121000  -95.652000 T    2426 GLP    -0.6000 ****
7278 HO1    27.606000   68.498000 -103.801000 H    2426 GLP     0.4000 ****
7279 TO2    16.156000   60.007000  -87.585000 T    2427 GLP     0.6000 ****
7280 TO1    17.660000   65.595000  -95.740000 T    2427 GLP    -0.6000 ****
7281 HO1    19.164000   71.183000 -103.896000 H    2427 GLP     0.4000 ****
7282 TO2     8.820000   61.401000  -87.665000 T    2428 GLP     0.6000 ****
7283 TO1     9.641000   67.118000  -95.828000 T    2428 GLP    -0.6000 ****
7284 HO1    10.462000   72.835000 -103.991000 H    2428 GLP     0.4000 ****
7285 TO2     1.369000   61.902000  -87.745000 T    2429 GLP     0.6000 ****
7286 TO1     1.497000   67.666000  -95.916000 T    2429 GLP    -0.6000 ****
7287 HO1     1.624000   73.430000 -104.087000 H    2429 GLP     0.4000 ****
7288 TO2    -6.087000   61.502000  -87.826000 T    2430 GLP     0.6000 ****
7289 TO1    -6.654000   67.229000  -96.004000 T    2430 GLP    -0.6000 ****
7290 HO1    -7.221000   72.956000 -104.182000 H    2430 GLP     0.4000 ****
7291 TO2   -13.441000   60.206000  -87.906000 T    2431 GLP     0.6000 ****
7292 TO1   -14.693000   65.813000  -96.092000 T    2431 GLP    -0.6000 ****
7293 HO1   -15.945000   71.419000 -104.277000 H    2431 GLP     0.4000 ****
7294 TO2   -20.585000   58.031000  -87.986000 T    2432 GLP     0.6000 ****
7295 TO1   -22.501000   63.435000  -96.179000 T    2432 GLP    -0.6000 ****
7296 HO1   -24.418000   68.839000 -104.373000 H    2432 GLP     0.4000 ****
7297 TO2   -27.412000   55.007000  -88.067000 T    2433 GLP     0.6000 ****
7298 TO1   -29.965000   60.129000  -96.267000 T    2433 GLP    -0.6000 ****
7299 HO1   -32.517000   65.251000 -104.468000 H    2433 GLP     0.4000 ****
7300 TO2   -33.822000   51.177000  -88.147000 T    2434 GLP     0.6000 ****
7301 TO1   -36.971000   55.943000  -96.355000 T    2434 GLP    -0.6000 ****
7302 HO1   -40.121000   60.708000 -104.563000 H    2434 GLP     0.4000 ****
7303 TO2   -39.719000   46.597000  -88.227000 T    2435 GLP     0.6000 ****
7304 TO1   -43.418000   50.936000  -96.443000 T    2435 GLP    -0.6000 ****
7305 HO1   -47.116000   55.275000 -104.658000 H    2435 GLP     0.4000 ****
7306 TO2   -45.015000   41.332000  -88.308000 T    2436 GLP     0.6000 ****
7307 TO1   -49.206000   45.181000  -96.531000 T    2436 GLP    -0.6000 ****
7308 HO1   -53.398000   49.030000 -104.754000 H    2436 GLP     0.4000 ****
7309 TO2   -49.628000   35.462000  -88.388000 T    2437 GLP     0.6000 ****
7310 TO1   -54.250000   38.764000  -96.619000 T    2437 GLP    -0.6000 ****
7311 HO1   -58.871000   42.066000 -104.849000 H    2437 GLP     0.4000 ****
7312 TO2   -53.490000   29.071000  -88.469000 T    2438 GLP     0.6000 ****
7313 TO1   -58.471000   31.778000  -96.706000 T    2438 GLP    -0.6000 ****
7314 HO1   -63.452000   34.485000 -104.944000 H    2438 GLP     0.4000 ****
7315 TO2   -56.540000   22.255000  -88.549000 T    2439 GLP     0.6000 ****
7316 TO1   -61.805000   24.328000  -96.794000 T    2439 GLP    -0.6000 ****
7317 HO1   -67.070000   26.400000 -105.040000 H    2439 GLP     0.4000 ****
7318 TO2   -58.731000   15.117000  -88.629000 T    2440 GLP     0.6000 ****
7319 TO1   -64.200000   16.525000  -96.882000 T    2440 GLP    -0.6000 ****
7320 HO1   -69.668000   17.932000 -105.135000 H    2440 GLP     0.4000 ****
7321 TO2   -60.027000    7.764000  -88.710000 T    2441 GLP     0.6000 ****
7322 TO1   -65.617000    8.487000  -96.970000 T    2441 GLP    -0.6000 ****
7323 HO1   -71.207000    9.210000 -105.230000 H    2441 GLP     0.4000 ****
7324 TO2   -60.409000    0.307000  -88.790000 T    2442 GLP     0.6000 ****
7325 TO1   -66.034000    0.335000  -97.058000 T    2442 GLP    -0.6000 ****
7326 HO1   -71.659000    0.364000 -105.326000 H    2442 GLP     0.4000 ****
7327 TO2   -59.867000   -7.140000  -88.870000 T    2443 GLP     0.6000 ****
7328 TO1   -65.442000   -7.805000  -97.146000 T    2443 GLP    -0.6000 ****
7329 HO1   -71.016000   -8.470000 -105.421000 H    2443 GLP     0.4000 ****
7330 TO2   -58.409000  -14.463000  -88.951000 T    2444 GLP     0.6000 ****
7331 TO1   -63.847000  -15.810000  -97.233000 T    2444 GLP    -0.6000 ****
7332 HO1   -69.286000  -17.156000 -105.516000 H    2444 GLP     0.4000 ****
7333 TO2   -56.054000  -21.549000  -89.031000 T    2445 GLP     0.6000 ****
7334 TO1   -61.274000  -23.555000  -97.321000 T    2445 GLP    -0.6000 ****
7335 HO1   -66.494000  -25.562000 -105.612000 H    2445 GLP     0.4000 ****
7336 TO2   -52.839000  -28.287000  -89.111000 T    2446 GLP     0.6000 ****
7337 TO1   -57.759000  -30.921000  -97.409000 T    2446 GLP    -0.6000 ****
7338 HO1   -62.679000  -33.555000 -105.707000 H    2446 GLP     0.4000 ****
7339 TO2   -48.811000  -34.574000  -89.192000 T    2447 GLP     0.6000 ****
7340 TO1   -53.356000  -37.793000  -97.497000 T    2447 GLP    -0.6000 ****
7341 HO1   -57.901000  -41.012000 -105.802000 H    2447 GLP     0.4000 ****
7342 TO2   -44.030000  -40.309000  -89.272000 T    2448 GLP     0.6000 ****
7343 TO1   -48.130000  -44.062000  -97.585000 T    2448 GLP    -0.6000 ****
7344 HO1   -52.230000  -47.816000 -105.898000 H    2448 GLP     0.4000 ****
7345 TO2   -38.571000  -45.403000  -89.352000 T    2449 GLP     0.6000 ****
7346 TO1   -42.163000  -49.630000  -97.673000 T    2449 GLP    -0.6000 ****
7347 HO1   -45.754000  -53.858000 -105.993000 H    2449 GLP     0.4000 ****
7348 TO2   -32.517000  -49.773000  -89.433000 T    2450 GLP     0.6000 ****
7349 TO1   -35.545000  -54.408000  -97.761000 T    2450 GLP    -0.6000 ****
7350 HO1   -38.573000  -59.043000 -106.088000 H    2450 GLP     0.4000 ****
7351 TO2   -25.964000  -53.350000  -89.513000 T    2451 GLP     0.6000 ****
7352 TO1   -28.382000  -58.318000  -97.848000 T    2451 GLP    -0.6000 ****
7353 HO1   -30.799000  -63.286000 -106.184000 H    2451 GLP     0.4000 ****
7354 TO2   -19.013000  -56.076000  -89.593000 T    2452 GLP     0.6000 ****
7355 TO1   -20.783000  -61.297000  -97.936000 T    2452 GLP    -0.6000 ****
7356 HO1   -22.554000  -66.519000 -106.279000 H    2452 GLP     0.4000 ****
7357 TO2   -11.774000  -57.905000  -89.674000 T    2453 GLP     0.6000 ****
7358 TO1   -12.871000  -63.296000  -98.024000 T    2453 GLP    -0.6000 ****
7359 HO1   -13.967000  -68.688000 -106.374000 H    2453 GLP     0.4000 ****
7360 TO2    -4.363000  -58.806000  -89.754000 T    2454 GLP     0.6000 ****
7361 TO1    -4.769000  -64.282000  -98.112000 T    2454 GLP    -0.6000 ****
7362 HO1    -5.175000  -69.757000 -106.469000 H    2454 GLP     0.4000 ****
7363 TO2     3.103000  -58.763000  -89.835000 T    2455 GLP     0.6000 ****
7364 TO1     3.392000  -64.235000  -98.200000 T    2455 GLP    -0.6000 ****
7365 HO1     3.681000  -69.707000 -106.565000 H    2455 GLP     0.4000 ****
7366 TO2    10.503000  -57.775000  -89.915000 T    2456 GLP     0.6000 ****
7367 TO1    11.481000  -63.155000  -98.288000 T    2456 GLP    -0.6000 ****
7368 HO1    12.459000  -68.535000 -106.660000 H    2456 GLP     0.4000 ****
7369 TO2    17.718000  -55.856000  -89.995000 T    2457 GLP     0.6000 ****
7370 TO1    19.368000  -61.057000  -98.375000 T    2457 GLP    -0.6000 ****
7371 HO1    21.018000  -66.258000 -106.755000 H    2457 GLP     0.4000 ****
7372 TO2    24.631000  -53.035000  -90.076000 T    2458 GLP     0.6000 ****
7373 TO1    26.924000  -57.973000  -98.463000 T    2458 GLP    -0.6000 ****
7374 HO1    29.218000  -62.912000 -106.851000 H    2458 GLP     0.4000 ****
7375 TO2    31.127000  -49.356000  -90.156000 T    2459 GLP     0.6000 ****
7376 TO1    34.026000  -53.951000  -98.551000 T    2459 GLP    -0.6000 ****
7377 HO1    36.924000  -58.547000 -106.946000 H    2459 GLP     0.4000 ****
7378 TO2    37.100000  -44.877000  -90.236000 T    2460 GLP     0.6000 ****
7379 TO1    40.555000  -49.056000  -98.639000 T    2460 GLP    -0.6000 ****
7380 HO1    44.010000  -53.235000 -107.041000 H    2460 GLP     0.4000 ****
7381 TO2    42.451000  -39.671000  -90.317000 T    2461 GLP     0.6000 ****
7382 TO1    46.404000  -43.365000  -98.727000 T    2461 GLP    -0.6000 ****
7383 HO1    50.357000  -47.059000 -107.137000 H    2461 GLP     0.4000 ****
7384 TO2    47.090000  -33.821000  -90.397000 T    2462 GLP     0.6000 ****
7385 TO1    51.475000  -36.971000  -98.815000 T    2462 GLP    -0.6000 ****
7386 HO1    55.860000  -40.120000 -107.232000 H    2462 GLP     0.4000 ****
7387 TO2    50.939000  -27.424000  -90.477000 T    2463 GLP     0.6000 ****
7388 TO1    55.682000  -29.978000  -98.902000 T    2463 GLP    -0.6000 ****
7389 HO1    60.425000  -32.531000 -107.327000 H    2463 GLP     0.4000 ****
7390 TO2    53.931000  -20.585000  -90.558000 T    2464 GLP     0.6000 ****
7391 TO1    58.953000  -22.501000  -98.990000 T    2464 GLP    -0.6000 ****
7392 HO1    63.975000  -24.418000 -107.423000 H    2464 GLP     0.4000 ****
7393 TO2    56.015000  -13.416000  -90.638000 T    2465 GLP     0.6000 ****
7394 TO1    61.231000  -14.665000  -99.078000 T    2465 GLP    -0.6000 ****
7395 HO1    66.447000  -15.914000 -107.518000 H    2465 GLP     0.4000 ****
7396 TO2    57.155000   -6.038000  -90.718000 T    2466 GLP     0.6000 ****
7397 TO1    62.477000   -6.600000  -99.166000 T    2466 GLP    -0.6000 ****
7398 HO1    67.799000   -7.163000 -107.613000 H    2466 GLP     0.4000 ****
7399 TO2    57.328000    1.425000  -90.799000 T    2467 GLP     0.6000 ****
7400 TO1    62.666000    1.558000  -99.254000 T    2467 GLP    -0.6000 ****
7401 HO1    68.005000    1.691000 -107.709000 H    2467 GLP     0.4000 ****
7402 TO2    56.530000    8.848000  -90.879000 T    2468 GLP     0.6000 ****
7403 TO1    61.794000    9.672000  -99.342000 T    2468 GLP    -0.6000 ****
7404 HO1    67.058000   10.496000 -107.804000 H    2468 GLP     0.4000 ****
7405 TO2    54.773000   16.103000  -90.959000 T    2469 GLP     0.6000 ****
7406 TO1    59.873000   17.603000  -99.429000 T    2469 GLP    -0.6000 ****
7407 HO1    64.973000   19.102000 -107.899000 H    2469 GLP     0.4000 ****
7408 TO2    52.083000   23.067000  -91.040000 T    2470 GLP     0.6000 ****
7409 TO1    56.933000   25.215000  -99.517000 T    2470 GLP    -0.6000 ****
7410 HO1    61.783000   27.363000 -107.995000 H    2470 GLP     0.4000 ****
7411 TO2    48.506000   29.619000  -91.120000 T    2471 GLP     0.6000 ****
7412 TO1    53.022000   32.377000  -99.605000 T    2471 GLP    -0.6000 ****
7413 HO1    57.539000   35.135000 -108.090000 H    2471 GLP     0.4000 ****
7414 TO2    44.100000   35.646000  -91.201000 T    2472 GLP     0.6000 ****
7415 TO1    48.207000   38.965000  -99.693000 T    2472 GLP    -0.6000 ****
7416 HO1    52.313000   42.284000 -108.185000 H    2472 GLP     0.4000 ****
7417 TO2    38.941000   41.041000  -91.281000 T    2473 GLP     0.6000 ****
7418 TO1    42.567000   44.863000  -99.781000 T    2473 GLP    -0.6000 ****
7419 HO1    46.193000   48.684000 -108.281000 H    2473 GLP     0.4000 ****
7420 TO2    33.116000   45.710000  -91.361000 T    2474 GLP     0.6000 ****
7421 TO1    36.200000   49.966000  -99.869000 T    2474 GLP    -0.6000 ****
7422 HO1    39.284000   54.223000 -108.376000 H    2474 GLP     0.4000 ****
7423 TO2    26.727000   49.569000  -91.442000 T    2475 GLP     0.6000 ****
7424 TO1    29.215000   54.185000  -99.956000 T    2475 GLP    -0.6000 ****
7425 HO1    31.704000   58.800000 -108.471000 H    2475 GLP     0.4000 ****
7426 TO2    19.882000   52.549000  -91.522000 T    2476 GLP     0.6000 ****
7427 TO1    21.734000   57.442000 -100.044000 T    2476 GLP    -0.6000 ****
7428 HO1    23.585000   62.335000 -108.566000 H    2476 GLP     0.4000 ****
7429 TO2    12.704000   54.595000  -91.602000 T    2477 GLP     0.6000 ****
7430 TO1    13.886000   59.679000 -100.132000 T    2477 GLP    -0.6000 ****
7431 HO1    15.069000   64.762000 -108.662000 H    2477 GLP     0.4000 ****
7432 TO2     5.317000   55.669000  -91.683000 T    2478 GLP     0.6000 ****
7433 TO1     5.812000   60.852000 -100.220000 T    2478 GLP    -0.6000 ****
7434 HO1     6.307000   66.036000 -108.757000 H    2478 GLP     0.4000 ****
7435 TO2    -2.148000   55.749000  -91.763000 T    2479 GLP     0.6000 ****
7436 TO1    -2.348000   60.940000 -100.308000 T    2479 GLP    -0.6000 ****
7437 HO1    -2.548000   66.131000 -108.852000 H    2479 GLP     0.4000 ****
7438 TO2    -9.555000   54.831000  -91.843000 T    2480 GLP     0.6000 ****
7439 TO1   -10.445000   59.937000 -100.396000 T    2480 GLP    -0.6000 ****
7440 HO1   -11.335000   65.043000 -108.948000 H    2480 GLP     0.4000 ****
7441 TO2   -16.774000   52.930000  -91.924000 T    2481 GLP     0.6000 ****
7442 TO1   -18.336000   57.859000 -100.483000 T    2481 GLP    -0.6000 ****
7443 HO1   -19.898000   62.788000 -109.043000 H    2481 GLP     0.4000 ****
7444 TO2   -23.672000   50.079000  -92.004000 T    2482 GLP     0.6000 ****
7445 TO1   -25.876000   54.742000 -100.571000 T    2482 GLP    -0.6000 ****
7446 HO1   -28.080000   59.405000 -109.138000 H    2482 GLP     0.4000 ****
7447 TO2   -30.124000   46.325000  -92.084000 T    2483 GLP     0.6000 ****
7448 TO1   -32.929000   50.638000 -100.659000 T    2483 GLP    -0.6000 ****
7449 HO1   -35.734000   54.952000 -109.234000 H    2483 GLP     0.4000 ****
7450 TO2   -36.010000   41.736000  -92.165000 T    2484 GLP     0.6000 ****
7451 TO1   -39.364000   45.622000 -100.747000 T    2484 GLP    -0.6000 ****
7452 HO1   -42.717000   49.508000 -109.329000 H    2484 GLP     0.4000 ****
7453 TO2   -41.223000   36.393000  -92.245000 T    2485 GLP     0.6000 ****
7454 TO1   -45.062000   39.782000 -100.835000 T    2485 GLP    -0.6000 ****
7455 HO1   -48.900000   43.171000 -109.424000 H    2485 GLP     0.4000 ****
7456 TO2   -45.664000   30.394000  -92.325000 T    2486 GLP     0.6000 ****
7457 TO1   -49.916000   33.224000 -100.923000 T    2486 GLP    -0.6000 ****
7458 HO1   -54.168000   36.054000 -109.520000 H    2486 GLP     0.4000 ****
7459 TO2   -49.249000   23.847000  -92.406000 T    2487 GLP     0.6000 ****
7460 TO1   -53.835000   26.068000 -101.010000 T    2487 GLP    -0.6000 ****
7461 HO1   -58.421000   28.288000 -109.615000 H    2487 GLP     0.4000 ****
7462 TO2   -51.909000   16.873000  -92.486000 T    2488 GLP     0.6000 ****
7463 TO1   -56.743000   18.445000 -101.098000 T    2488 GLP    -0.6000 ****
7464 HO1   -61.576000   20.016000 -109.710000 H    2488 GLP     0.4000 ****
7465 TO2   -53.593000    9.602000  -92.567000 T    2489 GLP     0.6000 ****
7466 TO1   -58.583000   10.496000 -101.186000 T    2489 GLP    -0.6000 ****
7467 HO1   -63.574000   11.390000 -109.806000 H    2489 GLP     0.4000 ****
7468 TO2   -54.266000    2.169000  -92.647000 T    2490 GLP     0.6000 ****
7469 TO1   -59.319000    2.371000 -101.274000 T    2490 GLP    -0.6000 ****
7470 HO1   -64.372000    2.572000 -109.901000 H    2490 GLP     0.4000 ****
7471 TO2   -53.914000   -5.287000  -92.727000 T    2491 GLP     0.6000 ****
7472 TO1   -58.934000   -5.779000 -101.362000 T    2491 GLP    -0.6000 ****
7473 HO1   -63.954000   -6.271000 -109.996000 H    2491 GLP     0.4000 ****
7474 TO2   -52.539000  -12.623000  -92.808000 T    2492 GLP     0.6000 ****
7475 TO1   -57.432000  -13.798000 -101.450000 T    2492 GLP    -0.6000 ****
7476 HO1   -62.324000  -14.974000 -110.092000 H    2492 GLP     0.4000 ****
7477 TO2   -50.167000  -19.699000  -92.888000 T    2493 GLP     0.6000 ****
7478 TO1   -54.838000  -21.534000 -101.537000 T    2493 GLP    -0.6000 ****
7479 HO1   -59.510000  -23.368000 -110.187000 H    2493 GLP     0.4000 ****
7480 TO2   -46.840000  -26.380000  -92.968000 T    2494 GLP     0.6000 ****
7481 TO1   -51.201000  -28.836000 -101.625000 T    2494 GLP    -0.6000 ****
7482 HO1   -55.563000  -31.293000 -110.282000 H    2494 GLP     0.4000 ****
7483 TO2   -42.619000  -32.535000  -93.049000 T    2495 GLP     0.6000 ****
7484 TO1   -46.587000  -35.565000 -101.713000 T    2495 GLP    -0.6000 ****
7485 HO1   -50.556000  -38.594000 -110.378000 H    2495 GLP     0.4000 ****
7486 TO2   -37.584000  -38.045000  -93.129000 T    2496 GLP     0.6000 ****
7487 TO1   -41.084000  -41.587000 -101.801000 T    2496 GLP    -0.6000 ****
7488 HO1   -44.584000  -45.130000 -110.473000 H    2496 GLP     0.4000 ****
7489 TO2   -31.831000  -42.799000  -93.209000 T    2497 GLP     0.6000 ****
7490 TO1   -34.795000  -46.784000 -101.889000 T    2497 GLP    -0.6000 ****
7491 HO1   -37.759000  -50.770000 -110.568000 H    2497 GLP     0.4000 ****
7492 TO2   -25.471000  -46.704000  -93.290000 T    2498 GLP     0.6000 ****
7493 TO1   -27.843000  -51.052000 -101.977000 T    2498 GLP    -0.6000 ****
7494 HO1   -30.215000  -55.401000 -110.663000 H    2498 GLP     0.4000 ****
7495 TO2   -18.627000  -49.679000  -93.370000 T    2499 GLP     0.6000 ****
7496 TO1   -20.361000  -54.305000 -102.064000 T    2499 GLP    -0.6000 ****
7497 HO1   -22.096000  -58.931000 -110.759000 H    2499 GLP     0.4000 ****
7498 TO2   -11.433000  -51.665000  -93.450000 T    2500 GLP     0.6000 ****
7499 TO1   -12.498000  -56.476000 -102.152000 T    2500 GLP    -0.6000 ****
7500 HO1   -13.562000  -61.287000 -110.854000 H    2500 GLP     0.4000 ****
7501 TO2    -4.031000  -52.619000  -93.531000 T    2501 GLP     0.6000 ****
7502 TO1    -4.407000  -57.518000 -102.240000 T    2501 GLP    -0.6000 ****
7503 HO1    -4.782000  -62.418000 -110.949000 H    2501 GLP     0.4000 ****
7504 TO2     3.431000  -52.518000  -93.611000 T    2502 GLP     0.6000 ****
7505 TO1     3.750000  -57.408000 -102.328000 T    2502 GLP    -0.6000 ****
7506 HO1     4.070000  -62.299000 -111.045000 H    2502 GLP     0.4000 ****
7507 TO2    10.804000  -51.363000  -93.691000 T    2503 GLP     0.6000 ****
7508 TO1    11.810000  -56.146000 -102.416000 T    2503 GLP    -0.6000 ****
7509 HO1    12.816000  -60.929000 -111.140000 H    2503 GLP     0.4000 ****
7510 TO2    17.938000  -49.174000  -93.772000 T    2504 GLP     0.6000 ****
7511 TO1    19.608000  -53.752000 -102.504000 T    2504 GLP    -0.6000 ****
7512 HO1    21.279000  -58.331000 -111.235000 H    2504 GLP     0.4000 ****
7513 TO2    24.688000  -45.992000  -93.852000 T    2505 GLP     0.6000 ****
7514 TO1    26.987000  -50.274000 -102.591000 T    2505 GLP    -0.6000 ****
7515 HO1    29.286000  -54.557000 -111.331000 H    2505 GLP     0.4000 ****
7516 TO2    30.915000  -41.879000  -93.933000 T    2506 GLP     0.6000 ****
7517 TO1    33.794000  -45.779000 -102.679000 T    2506 GLP    -0.6000 ****
7518 HO1    36.673000  -49.679000 -111.426000 H    2506 GLP     0.4000 ****
7519 TO2    36.490000  -36.919000  -94.013000 T    2507 GLP     0.6000 ****
7520 TO1    39.888000  -40.357000 -102.767000 T    2507 GLP    -0.6000 ****
7521 HO1    43.286000  -43.795000 -111.521000 H    2507 GLP     0.4000 ****
7522 TO2    41.296000  -31.210000  -94.093000 T    2508 GLP     0.6000 ****
7523 TO1    45.141000  -34.116000 -102.855000 T    2508 GLP    -0.6000 ****
7524 HO1    48.987000  -37.023000 -111.617000 H    2508 GLP     0.4000 ****
7525 TO2    45.231000  -24.870000  -94.174000 T    2509 GLP     0.6000 ****
7526 TO1    49.442000  -27.185000 -102.943000 T    2509 GLP    -0.6000 ****
7527 HO1    53.654000  -29.501000 -111.712000 H    2509 GLP     0.4000 ****
7528 TO2    48.209000  -18.028000  -94.254000 T    2510 GLP     0.6000 ****
7529 TO1    52.699000  -19.707000 -103.031000 T    2510 GLP    -0.6000 ****
7530 HO1    57.188000  -21.385000 -111.807000 H    2510 GLP     0.4000 ****
7531 TO2    50.167000  -10.827000  -94.334000 T    2511 GLP     0.6000 ****
7532 TO1    54.839000  -11.836000 -103.118000 T    2511 GLP    -0.6000 ****
7533 HO1    59.510000  -12.844000 -111.903000 H    2511 GLP     0.4000 ****
7534 TO2    51.060000   -3.419000  -94.415000 T    2512 GLP     0.6000 ****
7535 TO1    55.815000   -3.738000 -103.206000 T    2512 GLP    -0.6000 ****
7536 HO1    60.569000   -4.056000 -111.998000 H    2512 GLP     0.4000 ****
7537 TO2    50.866000    4.040000  -94.495000 T    2513 GLP     0.6000 ****
7538 TO1    55.602000    4.416000 -103.294000 T    2513 GLP    -0.6000 ****
7539 HO1    60.339000    4.792000 -112.093000 H    2513 GLP     0.4000 ****
7540 TO2    49.585000   11.391000  -94.575000 T    2514 GLP     0.6000 ****
7541 TO1    54.203000   12.452000 -103.382000 T    2514 GLP    -0.6000 ****
7542 HO1    58.820000   13.512000 -112.189000 H    2514 GLP     0.4000 ****
7543 TO2    47.243000   18.475000  -94.656000 T    2515 GLP     0.6000 ****
7544 TO1    51.642000   20.196000 -103.470000 T    2515 GLP    -0.6000 ****
7545 HO1    56.041000   21.916000 -112.284000 H    2515 GLP     0.4000 ****
7546 TO2    43.887000   25.139000  -94.736000 T    2516 GLP     0.6000 ****
7547 TO1    47.973000   27.480000 -103.558000 T    2516 GLP    -0.6000 ****
7548 HO1    52.060000   29.821000 -112.379000 H    2516 GLP     0.4000 ****
7549 TO2    39.586000   31.237000  -94.816000 T    2517 GLP     0.6000 ****
7550 TO1    43.272000   34.145000 -103.645000 T    2517 GLP    -0.6000 ****
7551 HO1    46.959000   37.054000 -112.474000 H    2517 GLP     0.4000 ****
7552 TO2    34.433000   36.632000  -94.897000 T    2518 GLP     0.6000 ****
7553 TO1    37.639000   40.044000 -103.733000 T    2518 GLP    -0.6000 ****
7554 HO1    40.846000   43.455000 -112.570000 H    2518 GLP     0.4000 ****
7555 TO2    28.538000   41.206000  -94.977000 T    2519 GLP     0.6000 ****
7556 TO1    31.195000   45.043000 -103.821000 T    2519 GLP    -0.6000 ****
7557 HO1    33.852000   48.880000 -112.665000 H    2519 GLP     0.4000 ****
7558 TO2    22.029000   44.853000  -95.057000 T    2520 GLP     0.6000 ****
7559 TO1    24.080000   49.029000 -103.909000 T    2520 GLP    -0.6000 ****
7560 HO1    26.131000   53.206000 -112.760000 H    2520 GLP     0.4000 ****
7561 TO2    15.049000   47.490000  -95.138000 T    2521 GLP     0.6000 ****
7562 TO1    16.451000   51.912000 -103.997000 T    2521 GLP    -0.6000 ****
7563 HO1    17.852000   56.334000 -112.856000 H    2521 GLP     0.4000 ****
7564 TO2     7.755000   49.054000  -95.218000 T    2522 GLP     0.6000 ****
7565 TO1     8.477000   53.622000 -104.085000 T    2522 GLP    -0.6000 ****
7566 HO1     9.199000   58.190000 -112.951000 H    2522 GLP     0.4000 ****
7567 TO2     0.308000   49.508000  -95.299000 T    2523 GLP     0.6000 ****
7568 TO1     0.336000   54.118000 -104.172000 T    2523 GLP    -0.6000 ****
7569 HO1     0.365000   58.728000 -113.046000 H    2523 GLP     0.4000 ****
7570 TO2    -7.123000   48.837000  -95.379000 T    2524 GLP     0.6000 ****
7571 TO1    -7.786000   53.385000 -104.260000 T    2524 GLP    -0.6000 ****
7572 HO1    -8.449000   57.933000 -113.142000 H    2524 GLP     0.4000 ****
7573 TO2   -14.367000   47.054000  -95.459000 T    2525 GLP     0.6000 ****
7574 TO1   -15.705000   51.436000 -104.348000 T    2525 GLP    -0.6000 ****
7575 HO1   -17.043000   55.817000 -113.237000 H    2525 GLP     0.4000 ****
7576 TO2   -21.258000   44.196000  -95.540000 T    2526 GLP     0.6000 ****
7577 TO1   -23.237000   48.311000 -104.436000 T    2526 GLP    -0.6000 ****
7578 HO1   -25.217000   52.426000 -113.332000 H    2526 GLP     0.4000 ****
7579 TO2   -27.635000   40.325000  -95.620000 T    2527 GLP     0.6000 ****
7580 TO1   -30.209000   44.080000 -104.524000 T    2527 GLP    -0.6000 ****
7581 HO1   -32.782000   47.834000 -113.428000 H    2527 GLP     0.4000 ****
7582 TO2   -33.349000   35.528000  -95.700000 T    2528 GLP     0.6000 ****
7583 TO1   -36.455000   38.836000 -104.612000 T    2528 GLP    -0.6000 ****
7584 HO1   -39.560000   42.145000 -113.523000 H    2528 GLP     0.4000 ****
7585 TO2   -38.263000   29.916000  -95.781000 T    2529 GLP     0.6000 ****
7586 TO1   -41.826000   32.701000 -104.699000 T    2529 GLP    -0.6000 ****
7587 HO1   -45.389000   35.487000 -113.618000 H    2529 GLP     0.4000 ****
7588 TO2   -42.260000   23.616000  -95.861000 T    2530 GLP     0.6000 ****
7589 TO1   -46.195000   25.816000 -104.787000 T    2530 GLP    -0.6000 ****
7590 HO1   -50.130000   28.015000 -113.714000 H    2530 GLP     0.4000 ****
7591 TO2   -45.241000   16.778000  -95.941000 T    2531 GLP     0.6000 ****
7592 TO1   -49.453000   18.340000 -104.875000 T    2531 GLP    -0.6000 ****
7593 HO1   -53.666000   19.903000 -113.809000 H    2531 GLP     0.4000 ****
7594 TO2   -47.131000    9.562000  -96.022000 T    2532 GLP     0.6000 ****
7595 TO1   -51.520000   10.452000 -104.963000 T    2532 GLP    -0.6000 ****
7596 HO1   -55.909000   11.343000 -113.904000 H    2532 GLP     0.4000 ****
7597 TO2   -47.883000    2.141000  -96.102000 T    2533 GLP     0.6000 ****
7598 TO1   -52.342000    2.340000 -105.051000 T    2533 GLP    -0.6000 ****
7599 HO1   -56.800000    2.539000 -114.000000 H    2533 GLP     0.4000 ****
7600 TO2   -47.474000   -5.308000  -96.182000 T    2534 GLP     0.6000 ****
7601 TO1   -51.894000   -5.802000 -105.139000 T    2534 GLP    -0.6000 ****
7602 HO1   -56.315000   -6.296000 -114.095000 H    2534 GLP     0.4000 ****
7603 TO2   -45.909000  -12.601000  -96.263000 T    2535 GLP     0.6000 ****
7604 TO1   -50.184000  -13.774000 -105.226000 T    2535 GLP    -0.6000 ****
7605 HO1   -54.459000  -14.948000 -114.190000 H    2535 GLP     0.4000 ****
7606 TO2   -43.225000  -19.560000  -96.343000 T    2536 GLP     0.6000 ****
7607 TO1   -47.250000  -21.382000 -105.314000 T    2536 GLP    -0.6000 ****
7608 HO1   -51.275000  -23.203000 -114.286000 H    2536 GLP     0.4000 ****
7609 TO2   -39.482000  -26.012000  -96.423000 T    2537 GLP     0.6000 ****
7610 TO1   -43.159000  -28.434000 -105.402000 T    2537 GLP    -0.6000 ****
7611 HO1   -46.835000  -30.857000 -114.381000 H    2537 GLP     0.4000 ****
7612 TO2   -34.771000  -31.795000  -96.504000 T    2538 GLP     0.6000 ****
7613 TO1   -38.009000  -34.756000 -105.490000 T    2538 GLP    -0.6000 ****
7614 HO1   -41.247000  -37.717000 -114.476000 H    2538 GLP     0.4000 ****
7615 TO2   -29.207000  -36.762000  -96.584000 T    2539 GLP     0.6000 ****
7616 TO1   -31.926000  -40.185000 -105.578000 T    2539 GLP    -0.6000 ****
7617 HO1   -34.646000  -43.608000 -114.571000 H    2539 GLP     0.4000 ****
7618 TO2   -22.926000  -40.784000  -96.665000 T    2540 GLP     0.6000 ****
7619 TO1   -25.060000  -44.582000 -105.666000 T    2540 GLP    -0.6000 ****
7620 HO1   -27.195000  -48.380000 -114.667000 H    2540 GLP     0.4000 ****
7621 TO2   -16.085000  -43.757000  -96.745000 T    2541 GLP     0.6000 ****
7622 TO1   -17.583000  -47.831000 -105.753000 T    2541 GLP    -0.6000 ****
7623 HO1   -19.081000  -51.906000 -114.762000 H    2541 GLP     0.4000 ****
7624 TO2    -8.858000  -45.600000  -96.825000 T    2542 GLP     0.6000 ****
7625 TO1    -9.683000  -49.846000 -105.841000 T    2542 GLP    -0.6000 ****
7626 HO1   -10.508000  -54.092000 -114.857000 H    2542 GLP     0.4000 ****
7627 TO2    -1.430000  -46.263000  -96.906000 T    2543 GLP     0.6000 ****
7628 TO1    -1.563000  -50.570000 -105.929000 T    2543 GLP    -0.6000 ****
7629 HO1    -1.696000  -54.878000 -114.953000 H    2543 GLP     0.4000 ****
7630 TO2     6.009000  -45.723000  -96.986000 T    2544 GLP     0.6000 ****
7631 TO1     6.568000  -49.981000 -106.017000 T    2544 GLP    -0.6000 ****
7632 HO1     7.128000  -54.238000 -115.048000 H    2544 GLP     0.4000 ****
7633 TO2    13.262000  -43.991000  -97.066000 T    2545 GLP     0.6000 ****
7634 TO1    14.497000  -48.087000 -106.105000 T    2545 GLP    -0.6000 ****
7635 HO1    15.732000  -52.184000 -115.143000 H    2545 GLP     0.4000 ****
7636 TO2    20.140000  -41.108000  -97.147000 T    2546 GLP     0.6000 ****
7637 TO1    22.016000  -44.936000 -106.193000 T    2546 GLP    -0.6000 ****
7638 HO1    23.891000  -48.764000 -115.239000 H    2546 GLP     0.4000 ****
7639 TO2    26.458000  -37.146000  -97.227000 T    2547 GLP     0.6000 ****
7640 TO1    28.922000  -40.605000 -106.281000 T    2547 GLP    -0.6000 ****
7641 HO1    31.386000  -44.064000 -115.334000 H    2547 GLP     0.4000 ****
7642 TO2    32.046000  -32.207000  -97.307000 T    2548 GLP     0.6000 ****
7643 TO1    35.030000  -35.206000 -106.368000 T    2548 GLP    -0.6000 ****
7644 HO1    38.014000  -38.205000 -115.429000 H    2548 GLP     0.4000 ****
7645 TO2    36.750000  -26.421000  -97.388000 T    2549 GLP     0.6000 ****
7646 TO1    40.172000  -28.881000 -106.456000 T    2549 GLP    -0.6000 ****
7647 HO1    43.594000  -31.341000 -115.525000 H    2549 GLP     0.4000 ****
7648 TO2    40.439000  -19.940000  -97.468000 T    2550 GLP     0.6000 ****
7649 TO1    44.205000  -21.797000 -106.544000 T    2550 GLP    -0.6000 ****
7650 HO1    47.970000  -23.654000 -115.620000 H    2550 GLP     0.4000 ****
7651 TO2    43.009000  -12.941000  -97.548000 T    2551 GLP     0.6000 ****
7652 TO1    47.014000  -14.146000 -106.632000 T    2551 GLP    -0.6000 ****
7653 HO1    51.019000  -15.351000 -115.715000 H    2551 GLP     0.4000 ****
7654 TO2    44.386000   -5.612000  -97.629000 T    2552 GLP     0.6000 ****
7655 TO1    48.519000   -6.135000 -106.720000 T    2552 GLP    -0.6000 ****
7656 HO1    52.652000   -6.657000 -115.811000 H    2552 GLP     0.4000 ****
7657 TO2    44.525000    1.843000  -97.709000 T    2553 GLP     0.6000 ****
7658 TO1    48.671000    2.015000 -106.808000 T    2553 GLP    -0.6000 ****
7659 HO1    52.817000    2.186000 -115.906000 H    2553 GLP     0.4000 ****
7660 TO2    43.419000    9.217000  -97.789000 T    2554 GLP     0.6000 ****
7661 TO1    47.462000   10.075000 -106.895000 T    2554 GLP    -0.6000 ****
7662 HO1    51.505000   10.933000 -116.001000 H    2554 GLP     0.4000 ****
7663 TO2    41.094000   16.301000  -97.870000 T    2555 GLP     0.6000 ****
7664 TO1    44.921000   17.819000 -106.983000 T    2555 GLP    -0.6000 ****
7665 HO1    48.747000   19.337000 -116.097000 H    2555 GLP     0.4000 ****
7666 TO2    37.611000   22.894000  -97.950000 T    2556 GLP     0.6000 ****
7667 TO1    41.114000   25.025000 -107.071000 T    2556 GLP    -0.6000 ****
7668 HO1    44.616000   27.157000 -116.192000 H    2556 GLP     0.4000 ****
7669 TO2    33.066000   28.803000  -98.031000 T    2557 GLP     0.6000 ****
7670 TO1    36.145000   31.486000 -107.159000 T    2557 GLP    -0.6000 ****
7671 HO1    39.224000   34.168000 -116.287000 H    2557 GLP     0.4000 ****
7672 TO2    27.584000   33.857000  -98.111000 T    2558 GLP     0.6000 ****
7673 TO1    30.153000   37.010000 -107.247000 T    2558 GLP    -0.6000 ****
7674 HO1    32.722000   40.163000 -116.382000 H    2558 GLP     0.4000 ****
7675 TO2    21.323000   37.905000  -98.191000 T    2559 GLP     0.6000 ****
7676 TO1    23.309000   41.434000 -107.335000 T    2559 GLP    -0.6000 ****
7677 HO1    25.294000   44.964000 -116.478000 H    2559 GLP     0.4000 ****
7678 TO2    14.463000   40.823000  -98.272000 T    2560 GLP     0.6000 ****
7679 TO1    15.810000   44.624000 -107.422000 T    2560 GLP    -0.6000 ****
7680 HO1    17.156000   48.425000 -116.573000 H    2560 GLP     0.4000 ****
7681 TO2     7.204000   42.520000  -98.352000 T    2561 GLP     0.6000 ****
7682 TO1     7.875000   46.480000 -107.510000 T    2561 GLP    -0.6000 ****
7683 HO1     8.545000   50.439000 -116.668000 H    2561 GLP     0.4000 ****
7684 TO2    -0.239000   42.942000  -98.432000 T    2562 GLP     0.6000 ****
7685 TO1    -0.261000   46.940000 -107.598000 T    2562 GLP    -0.6000 ****
7686 HO1    -0.284000   50.939000 -116.764000 H    2562 GLP     0.4000 ****
7687 TO2    -7.642000   42.069000  -98.513000 T    2563 GLP     0.6000 ****
7688 TO1    -8.354000   45.987000 -107.686000 T    2563 GLP    -0.6000 ****
7689 HO1    -9.066000   49.904000 -116.859000 H    2563 GLP     0.4000 ****
7690 TO2   -14.781000   39.924000  -98.593000 T    2564 GLP     0.6000 ****
7691 TO1   -16.158000   43.641000 -107.774000 T    2564 GLP    -0.6000 ****
7692 HO1   -17.534000   47.359000 -116.954000 H    2564 GLP     0.4000 ****
7693 TO2   -21.436000   36.565000  -98.673000 T    2565 GLP     0.6000 ****
7694 TO1   -23.432000   39.970000 -107.862000 T    2565 GLP    -0.6000 ****
7695 HO1   -25.428000   43.375000 -117.050000 H    2565 GLP     0.4000 ****
7696 TO2   -27.399000   32.093000  -98.754000 T    2566 GLP     0.6000 ****
7697 TO1   -29.950000   35.081000 -107.949000 T    2566 GLP    -0.6000 ****
7698 HO1   -32.502000   38.070000 -117.145000 H    2566 GLP     0.4000 ****
7699 TO2   -32.482000   26.641000  -98.834000 T    2567 GLP     0.6000 ****
7700 TO1   -35.506000   29.122000 -108.037000 T    2567 GLP    -0.6000 ****
7701 HO1   -38.531000   31.602000 -117.240000 H    2567 GLP     0.4000 ****
7702 TO2   -36.520000   20.376000  -98.914000 T    2568 GLP     0.6000 ****
7703 TO1   -39.921000   22.274000 -108.125000 T    2568 GLP    -0.6000 ****
7704 HO1   -43.321000   24.171000 -117.336000 H    2568 GLP     0.4000 ****
7705 TO2   -39.382000   13.494000  -98.995000 T    2569 GLP     0.6000 ****
7706 TO1   -43.049000   14.751000 -108.213000 T    2569 GLP    -0.6000 ****
7707 HO1   -46.716000   16.007000 -117.431000 H    2569 GLP     0.4000 ****
7708 TO2   -40.969000    6.212000  -99.075000 T    2570 GLP     0.6000 ****
7709 TO1   -44.784000    6.791000 -108.301000 T    2570 GLP    -0.6000 ****
7710 HO1   -48.599000    7.369000 -117.526000 H    2570 GLP     0.4000 ****
7711 TO2   -41.227000   -1.236000  -99.155000 T    2571 GLP     0.6000 ****
7712 TO1   -45.065000   -1.351000 -108.389000 T    2571 GLP    -0.6000 ****
7713 HO1   -48.904000   -1.466000 -117.622000 H    2571 GLP     0.4000 ****
7714 TO2   -40.139000   -8.609000  -99.236000 T    2572 GLP     0.6000 ****
7715 TO1   -43.876000   -9.410000 -108.476000 T    2572 GLP    -0.6000 ****
7716 HO1   -47.614000  -10.212000 -117.717000 H    2572 GLP     0.4000 ****
7717 TO2   -37.735000  -15.663000  -99.316000 T    2573 GLP     0.6000 ****
7718 TO1   -41.249000  -17.121000 -108.564000 T    2573 GLP    -0.6000 ****
7719 HO1   -44.763000  -18.580000 -117.812000 H    2573 GLP     0.4000 ****
7720 TO2   -34.090000  -22.162000  -99.397000 T    2574 GLP     0.6000 ****
7721 TO1   -37.264000  -24.226000 -108.652000 T    2574 GLP    -0.6000 ****
7722 HO1   -40.439000  -26.290000 -117.908000 H    2574 GLP     0.4000 ****
7723 TO2   -29.319000  -27.887000  -99.477000 T    2575 GLP     0.6000 ****
7724 TO1   -32.050000  -30.484000 -108.740000 T    2575 GLP    -0.6000 ****
7725 HO1   -34.780000  -33.081000 -118.003000 H    2575 GLP     0.4000 ****
7726 TO2   -23.580000  -32.639000  -99.557000 T    2576 GLP     0.6000 ****
7727 TO1   -25.776000  -35.678000 -108.828000 T    2576 GLP    -0.6000 ****
7728 HO1   -27.971000  -38.718000 -118.098000 H    2576 GLP     0.4000 ****
7729 TO2   -17.063000  -36.252000  -99.638000 T    2577 GLP     0.6000 ****
7730 TO1   -18.652000  -39.627000 -108.916000 T    2577 GLP    -0.6000 ****
7731 HO1   -20.241000  -43.003000 -118.194000 H    2577 GLP     0.4000 ****
7732 TO2    -9.990000  -38.594000  -99.718000 T    2578 GLP     0.6000 ****
7733 TO1   -10.920000  -42.188000 -109.003000 T    2578 GLP    -0.6000 ****
7734 HO1   -11.850000  -45.782000 -118.289000 H    2578 GLP     0.4000 ****
7735 TO2    -2.604000  -39.579000  -99.798000 T    2579 GLP     0.6000 ****
7736 TO1    -2.847000  -43.264000 -109.091000 T    2579 GLP    -0.6000 ****
7737 HO1    -3.090000  -46.950000 -118.384000 H    2579 GLP     0.4000 ****
7738 TO2     4.834000  -39.164000  -99.879000 T    2580 GLP     0.6000 ****
7739 TO1     5.285000  -42.811000 -109.179000 T    2580 GLP    -0.6000 ****
7740 HO1     5.735000  -46.458000 -118.479000 H    2580 GLP     0.4000 ****
7741 TO2    12.062000  -37.359000  -99.959000 T    2581 GLP     0.6000 ****
7742 TO1    13.185000  -40.837000 -109.267000 T    2581 GLP    -0.6000 ****
7743 HO1    14.309000  -44.316000 -118.575000 H    2581 GLP     0.4000 ****
7744 TO2    18.818000  -34.219000 -100.039000 T    2582 GLP     0.6000 ****
7745 TO1    20.571000  -37.406000 -109.355000 T    2582 GLP    -0.6000 ****
7746 HO1    22.323000  -40.592000 -118.670000 H    2582 GLP     0.4000 ****
7747 TO2    24.855000  -29.854000 -100.120000 T    2583 GLP     0.6000 ****
7748 TO1    27.169000  -32.634000 -109.443000 T    2583 GLP    -0.6000 ****
7749 HO1    29.483000  -35.414000 -118.765000 H    2583 GLP     0.4000 ****
7750 TO2    29.946000  -24.416000 -100.200000 T    2584 GLP     0.6000 ****
7751 TO1    32.734000  -26.690000 -109.530000 T    2584 GLP    -0.6000 ****
7752 HO1    35.523000  -28.963000 -118.861000 H    2584 GLP     0.4000 ****
7753 TO2    33.898000  -18.102000 -100.280000 T    2585 GLP     0.6000 ****
7754 TO1    37.055000  -19.788000 -109.618000 T    2585 GLP    -0.6000 ****
7755 HO1    40.212000  -21.474000 -118.956000 H    2585 GLP     0.4000 ****
7756 TO2    36.558000  -11.145000 -100.361000 T    2586 GLP     0.6000 ****
7757 TO1    39.962000  -12.183000 -109.706000 T    2586 GLP    -0.6000 ****
7758 HO1    43.366000  -13.220000 -119.051000 H    2586 GLP     0.4000 ****
7759 TO2    37.816000   -3.804000 -100.441000 T    2587 GLP     0.6000 ****
7760 TO1    41.338000   -4.158000 -109.794000 T    2587 GLP    -0.6000 ****
7761 HO1    44.859000   -4.512000 -119.147000 H    2587 GLP     0.4000 ****
7762 TO2    37.618000    3.641000 -100.521000 T    2588 GLP     0.6000 ****
7763 TO1    41.121000    3.981000 -109.882000 T    2588 GLP    -0.6000 ****
7764 HO1    44.624000    4.320000 -119.242000 H    2588 GLP     0.4000 ****
7765 TO2    35.963000   10.903000 -100.602000 T    2589 GLP     0.6000 ****
7766 TO1    39.312000   11.918000 -109.970000 T    2589 GLP    -0.6000 ****
7767 HO1    42.661000   12.933000 -119.337000 H    2589 GLP     0.4000 ****
7768 TO2    32.909000   17.694000 -100.682000 T    2590 GLP     0.6000 ****
7769 TO1    35.973000   19.342000 -110.057000 T    2590 GLP    -0.6000 ****
7770 HO1    39.037000   20.990000 -119.433000 H    2590 GLP     0.4000 ****
7771 TO2    28.567000   23.745000 -100.763000 T    2591 GLP     0.6000 ****
7772 TO1    31.227000   25.956000 -110.145000 T    2591 GLP    -0.6000 ****
7773 HO1    33.887000   28.167000 -119.528000 H    2591 GLP     0.4000 ****
7774 TO2    23.106000   28.806000 -100.843000 T    2592 GLP     0.6000 ****
7775 TO1    25.257000   31.489000 -110.233000 T    2592 GLP    -0.6000 ****
7776 HO1    27.409000   34.171000 -119.623000 H    2592 GLP     0.4000 ****
7777 TO2    16.740000   32.669000 -100.923000 T    2593 GLP     0.6000 ****
7778 TO1    18.298000   35.711000 -110.321000 T    2593 GLP    -0.6000 ****
7779 HO1    19.857000   38.753000 -119.719000 H    2593 GLP     0.4000 ****
7780 TO2     9.725000   35.166000 -101.004000 T    2594 GLP     0.6000 ****
7781 TO1    10.631000   38.441000 -110.409000 T    2594 GLP    -0.6000 ****
7782 HO1    11.537000   41.715000 -119.814000 H    2594 GLP     0.4000 ****
7783 TO2     2.350000   36.187000 -101.084000 T    2595 GLP     0.6000 ****
7784 TO1     2.569000   39.556000 -110.497000 T    2595 GLP    -0.6000 ****
7785 HO1     2.788000   42.926000 -119.909000 H    2595 GLP     0.4000 ****
7786 TO2    -5.077000   35.679000 -101.164000 T    2596 GLP     0.6000 ****
7787 TO1    -5.550000   39.001000 -110.584000 T    2596 GLP    -0.6000 ****
7788 HO1    -6.022000   42.323000 -120.005000 H    2596 GLP     0.4000 ****
7789 TO2   -12.241000   33.655000 -101.245000 T    2597 GLP     0.6000 ****
7790 TO1   -13.381000   36.789000 -110.672000 T    2597 GLP    -0.6000 ****
7791 HO1   -14.521000   39.923000 -120.100000 H    2597 GLP     0.4000 ****
7792 TO2   -18.831000   30.193000 -101.325000 T    2598 GLP     0.6000 ****
7793 TO1   -20.584000   33.004000 -110.760000 T    2598 GLP    -0.6000 ****
7794 HO1   -22.338000   35.816000 -120.195000 H    2598 GLP     0.4000 ****
7795 TO2   -24.555000   25.435000 -101.405000 T    2599 GLP     0.6000 ****
7796 TO1   -26.842000   27.804000 -110.848000 T    2599 GLP    -0.6000 ****
7797 HO1   -29.128000   30.172000 -120.291000 H    2599 GLP     0.4000 ****
7798 TO2   -29.156000   19.584000 -101.486000 T    2600 GLP     0.6000 ****
7799 TO1   -31.871000   21.408000 -110.936000 T    2600 GLP    -0.6000 ****
7800 HO1   -34.586000   23.232000 -120.386000 H    2600 GLP     0.4000 ****
7801 TO2   -32.419000   12.895000 -101.566000 T    2601 GLP     0.6000 ****
7802 TO1   -35.438000   14.096000 -111.024000 T    2601 GLP    -0.6000 ****
7803 HO1   -38.457000   15.297000 -120.481000 H    2601 GLP     0.4000 ****
7804 TO2   -34.189000    5.667000 -101.646000 T    2602 GLP     0.6000 ****
7805 TO1   -37.372000    6.194000 -111.111000 T    2602 GLP    -0.6000 ****
7806 HO1   -40.556000    6.722000 -120.576000 H    2602 GLP     0.4000 ****
7807 TO2   -34.373000   -1.772000 -101.727000 T    2603 GLP     0.6000 ****
7808 TO1   -37.573000   -1.938000 -111.199000 T    2603 GLP    -0.6000 ****
7809 HO1   -40.774000   -2.103000 -120.672000 H    2603 GLP     0.4000 ****
7810 TO2   -32.953000   -9.077000 -101.807000 T    2604 GLP     0.6000 ****
7811 TO1   -36.021000   -9.922000 -111.287000 T    2604 GLP    -0.6000 ****
7812 HO1   -39.090000  -10.767000 -120.767000 H    2604 GLP     0.4000 ****
7813 TO2   -29.985000  -15.900000 -101.887000 T    2605 GLP     0.6000 ****
7814 TO1   -32.777000  -17.380000 -111.375000 T    2605 GLP    -0.6000 ****
7815 HO1   -35.569000  -18.861000 -120.862000 H    2605 GLP     0.4000 ****
7816 TO2   -25.601000  -21.911000 -101.968000 T    2606 GLP     0.6000 ****
7817 TO1   -27.985000  -23.951000 -111.463000 T    2606 GLP    -0.6000 ****
7818 HO1   -30.369000  -25.992000 -120.958000 H    2606 GLP     0.4000 ****
7819 TO2   -20.005000  -26.813000 -102.048000 T    2607 GLP     0.6000 ****
7820 TO1   -21.868000  -29.310000 -111.551000 T    2607 GLP    -0.6000 ****
7821 HO1   -23.731000  -31.806000 -121.053000 H    2607 GLP     0.4000 ****
7822 TO2   -13.464000  -30.355000 -102.129000 T    2608 GLP     0.6000 ****
7823 TO1   -14.718000  -33.182000 -111.638000 T    2608 GLP    -0.6000 ****
7824 HO1   -15.972000  -36.009000 -121.148000 H    2608 GLP     0.4000 ****
7825 TO2    -6.299000  -32.352000 -102.209000 T    2609 GLP     0.6000 ****
7826 TO1    -6.885000  -35.364000 -111.726000 T    2609 GLP    -0.6000 ****
7827 HO1    -7.472000  -38.377000 -121.244000 H    2609 GLP     0.4000 ****
7828 TO2     1.131000  -32.689000 -102.289000 T    2610 GLP     0.6000 ****
7829 TO1     1.236000  -35.733000 -111.814000 T    2610 GLP    -0.6000 ****
7830 HO1     1.342000  -38.777000 -121.339000 H    2610 GLP     0.4000 ****
7831 TO2     8.444000  -31.339000 -102.370000 T    2611 GLP     0.6000 ****
7832 TO1     9.231000  -34.257000 -111.902000 T    2611 GLP    -0.6000 ****
7833 HO1    10.017000  -37.175000 -121.434000 H    2611 GLP     0.4000 ****
7834 TO2    15.257000  -28.358000 -102.450000 T    2612 GLP     0.6000 ****
7835 TO1    16.678000  -30.999000 -111.990000 T    2612 GLP    -0.6000 ****
7836 HO1    18.099000  -33.640000 -121.530000 H    2612 GLP     0.4000 ****
7837 TO2    21.204000  -23.894000 -102.530000 T    2613 GLP     0.6000 ****
7838 TO1    23.178000  -26.119000 -112.078000 T    2613 GLP    -0.6000 ****
7839 HO1    25.152000  -28.344000 -121.625000 H    2613 GLP     0.4000 ****
7840 TO2    25.955000  -18.175000 -102.611000 T    2614 GLP     0.6000 ****
7841 TO1    28.372000  -19.868000 -112.165000 T    2614 GLP    -0.6000 ****
7842 HO1    30.789000  -21.560000 -121.720000 H    2614 GLP     0.4000 ****
7843 TO2    29.242000  -11.507000 -102.691000 T    2615 GLP     0.6000 ****
7844 TO1    31.965000  -12.579000 -112.253000 T    2615 GLP    -0.6000 ****
7845 HO1    34.688000  -13.650000 -121.816000 H    2615 GLP     0.4000 ****
7846 TO2    30.869000   -4.254000 -102.771000 T    2616 GLP     0.6000 ****
7847 TO1    33.744000   -4.650000 -112.341000 T    2616 GLP    -0.6000 ****
7848 HO1    36.618000   -5.046000 -121.911000 H    2616 GLP     0.4000 ****
7849 TO2    30.731000    3.177000 -102.852000 T    2617 GLP     0.6000 ****
7850 TO1    33.593000    3.473000 -112.429000 T    2617 GLP    -0.6000 ****
7851 HO1    36.454000    3.769000 -122.006000 H    2617 GLP     0.4000 ****
7852 TO2    28.821000   10.359000 -102.932000 T    2618 GLP     0.6000 ****
7853 TO1    31.505000   11.324000 -112.517000 T    2618 GLP    -0.6000 ****
7854 HO1    34.188000   12.289000 -122.102000 H    2618 GLP     0.4000 ****
7855 TO2    25.236000   16.869000 -103.012000 T    2619 GLP     0.6000 ****
7856 TO1    27.586000   18.439000 -112.605000 T    2619 GLP    -0.6000 ****
7857 HO1    29.936000   20.010000 -122.197000 H    2619 GLP     0.4000 ****
7858 TO2    20.177000   22.310000 -103.093000 T    2620 GLP     0.6000 ****
7859 TO1    22.055000   24.388000 -112.692000 T    2620 GLP    -0.6000 ****
7860 HO1    23.934000   26.465000 -122.292000 H    2620 GLP     0.4000 ****
7861 TO2    13.938000   26.344000 -103.173000 T    2621 GLP     0.6000 ****
7862 TO1    15.236000   28.797000 -112.780000 T    2621 GLP    -0.6000 ****
7863 HO1    16.534000   31.250000 -122.387000 H    2621 GLP     0.4000 ****
7864 TO2     6.896000   28.708000 -103.253000 T    2622 GLP     0.6000 ****
7865 TO1     7.538000   31.381000 -112.868000 T    2622 GLP    -0.6000 ****
7866 HO1     8.180000   34.054000 -122.483000 H    2622 GLP     0.4000 ****
7867 TO2    -0.513000   29.237000 -103.334000 T    2623 GLP     0.6000 ****
7868 TO1    -0.561000   31.960000 -112.956000 T    2623 GLP    -0.6000 ****
7869 HO1    -0.609000   34.682000 -122.578000 H    2623 GLP     0.4000 ****
7870 TO2    -7.815000   27.882000 -103.414000 T    2624 GLP     0.6000 ****
7871 TO1    -8.542000   30.478000 -113.044000 T    2624 GLP    -0.6000 ****
7872 HO1    -9.270000   33.075000 -122.673000 H    2624 GLP     0.4000 ****
7873 TO2   -14.530000   24.713000 -103.495000 T    2625 GLP     0.6000 ****
7874 TO1   -15.883000   27.014000 -113.132000 T    2625 GLP    -0.6000 ****
7875 HO1   -17.236000   29.315000 -122.769000 H    2625 GLP     0.4000 ****
7876 TO2   -20.204000   19.925000 -103.575000 T    2626 GLP     0.6000 ****
7877 TO1   -22.085000   21.780000 -113.219000 T    2626 GLP    -0.6000 ****
7878 HO1   -23.967000   23.636000 -122.864000 H    2626 GLP     0.4000 ****
7879 TO2   -24.440000   13.829000 -103.655000 T    2627 GLP     0.6000 ****
7880 TO1   -26.716000   15.117000 -113.307000 T    2627 GLP    -0.6000 ****
7881 HO1   -28.992000   16.405000 -122.959000 H    2627 GLP     0.4000 ****
7882 TO2   -26.929000    6.837000 -103.736000 T    2628 GLP     0.6000 ****
7883 TO1   -29.436000    7.473000 -113.395000 T    2628 GLP    -0.6000 ****
7884 HO1   -31.944000    8.110000 -123.055000 H    2628 GLP     0.4000 ****
7885 TO2   -27.475000   -0.564000 -103.816000 T    2629 GLP     0.6000 ****
7886 TO1   -30.034000   -0.616000 -113.483000 T    2629 GLP    -0.6000 ****
7887 HO1   -32.592000   -0.669000 -123.150000 H    2629 GLP     0.4000 ****
7888 TO2   -26.021000   -7.839000 -103.896000 T    2630 GLP     0.6000 ****
7889 TO1   -28.444000   -8.569000 -113.571000 T    2630 GLP    -0.6000 ****
7890 HO1   -30.866000   -9.299000 -123.245000 H    2630 GLP     0.4000 ****
7891 TO2   -22.651000  -14.448000 -103.977000 T    2631 GLP     0.6000 ****
7892 TO1   -24.760000  -15.793000 -113.659000 T    2631 GLP    -0.6000 ****
7893 HO1   -26.870000  -17.139000 -123.341000 H    2631 GLP     0.4000 ****
7894 TO2   -17.602000  -19.881000 -104.057000 T    2632 GLP     0.6000 ****
7895 TO1   -19.241000  -21.732000 -113.746000 T    2632 GLP    -0.6000 ****
7896 HO1   -20.881000  -23.584000 -123.436000 H    2632 GLP     0.4000 ****
7897 TO2   -11.248000  -23.704000 -104.137000 T    2633 GLP     0.6000 ****
7898 TO1   -12.296000  -25.911000 -113.834000 T    2633 GLP    -0.6000 ****
7899 HO1   -13.343000  -28.118000 -123.531000 H    2633 GLP     0.4000 ****
7900 TO2    -4.079000  -25.593000 -104.218000 T    2634 GLP     0.6000 ****
7901 TO1    -4.459000  -27.976000 -113.922000 T    2634 GLP    -0.6000 ****
7902 HO1    -4.839000  -30.359000 -123.627000 H    2634 GLP     0.4000 ****
7903 TO2     3.330000  -25.373000 -104.298000 T    2635 GLP     0.6000 ****
7904 TO1     3.640000  -27.736000 -114.010000 T    2635 GLP    -0.6000 ****
7905 HO1     3.950000  -30.098000 -123.722000 H    2635 GLP     0.4000 ****
7906 TO2    10.362000  -23.038000 -104.378000 T    2636 GLP     0.6000 ****
7907 TO1    11.327000  -25.183000 -114.098000 T    2636 GLP    -0.6000 ****
7908 HO1    12.292000  -27.328000 -123.817000 H    2636 GLP     0.4000 ****
7909 TO2    16.412000  -18.761000 -104.459000 T    2637 GLP     0.6000 ****
7910 TO1    17.940000  -20.508000 -114.186000 T    2637 GLP    -0.6000 ****
7911 HO1    19.469000  -22.255000 -123.913000 H    2637 GLP     0.4000 ****
7912 TO2    20.934000  -12.895000 -104.539000 T    2638 GLP     0.6000 ****
7913 TO1    22.884000  -14.096000 -114.274000 T    2638 GLP    -0.6000 ****
7914 HO1    24.833000  -15.297000 -124.008000 H    2638 GLP     0.4000 ****
7915 TO2    23.502000   -5.950000 -104.619000 T    2639 GLP     0.6000 ****
7916 TO1    25.690000   -6.504000 -114.361000 T    2639 GLP    -0.6000 ****
7917 HO1    27.879000   -7.058000 -124.103000 H    2639 GLP     0.4000 ****
7918 TO2    23.850000    1.444000 -104.700000 T    2640 GLP     0.6000 ****
7919 TO1    26.071000    1.579000 -114.449000 T    2640 GLP    -0.6000 ****
7920 HO1    28.292000    1.713000 -124.199000 H    2640 GLP     0.4000 ****
7921 TO2    21.916000    8.588000 -104.780000 T    2641 GLP     0.6000 ****
7922 TO1    23.957000    9.387000 -114.537000 T    2641 GLP    -0.6000 ****
7923 HO1    25.998000   10.187000 -124.294000 H    2641 GLP     0.4000 ****
7924 TO2    17.860000   14.774000 -104.861000 T    2642 GLP     0.6000 ****
7925 TO1    19.523000   16.150000 -114.625000 T    2642 GLP    -0.6000 ****
7926 HO1    21.186000   17.525000 -124.389000 H    2642 GLP     0.4000 ****
7927 TO2    12.060000   19.363000 -104.941000 T    2643 GLP     0.6000 ****
7928 TO1    13.183000   21.166000 -114.713000 T    2643 GLP    -0.6000 ****
7929 HO1    14.306000   22.969000 -124.484000 H    2643 GLP     0.4000 ****
7930 TO2     5.099000   21.852000 -105.021000 T    2644 GLP     0.6000 ****
7931 TO1     5.574000   23.887000 -114.801000 T    2644 GLP    -0.6000 ****
7932 HO1     6.049000   25.921000 -124.580000 H    2644 GLP     0.4000 ****
7933 TO2    -2.290000   21.940000 -105.102000 T    2645 GLP     0.6000 ****
7934 TO1    -2.503000   23.983000 -114.888000 T    2645 GLP    -0.6000 ****
7935 HO1    -2.717000   26.026000 -124.675000 H    2645 GLP     0.4000 ****
7936 TO2    -9.290000   19.581000 -105.182000 T    2646 GLP     0.6000 ****
7937 TO1   -10.155000   21.404000 -114.976000 T    2646 GLP    -0.6000 ****
7938 HO1   -11.020000   23.228000 -124.770000 H    2646 GLP     0.4000 ****
7939 TO2   -15.086000   15.007000 -105.262000 T    2647 GLP     0.6000 ****
7940 TO1   -16.491000   16.405000 -115.064000 T    2647 GLP    -0.6000 ****
7941 HO1   -17.896000   17.802000 -124.866000 H    2647 GLP     0.4000 ****
7942 TO2   -18.965000    8.729000 -105.343000 T    2648 GLP     0.6000 ****
7943 TO1   -20.731000    9.542000 -115.152000 T    2648 GLP    -0.6000 ****
7944 HO1   -22.497000   10.355000 -124.961000 H    2648 GLP     0.4000 ****
7945 TO2   -20.414000    1.497000 -105.423000 T    2649 GLP     0.6000 ****
7946 TO1   -22.314000    1.636000 -115.240000 T    2649 GLP    -0.6000 ****
7947 HO1   -24.215000    1.776000 -125.056000 H    2649 GLP     0.4000 ****
7948 TO2   -19.201000   -5.774000 -105.503000 T    2650 GLP     0.6000 ****
7949 TO1   -20.989000   -6.312000 -115.328000 T    2650 GLP    -0.6000 ****
7950 HO1   -22.777000   -6.850000 -125.152000 H    2650 GLP     0.4000 ****
7951 TO2   -15.440000  -12.110000 -105.584000 T    2651 GLP     0.6000 ****
7952 TO1   -16.878000  -13.237000 -115.415000 T    2651 GLP    -0.6000 ****
7953 HO1   -18.316000  -14.365000 -125.247000 H    2651 GLP     0.4000 ****
7954 TO2    -9.610000  -16.605000 -105.664000 T    2652 GLP     0.6000 ****
7955 TO1   -10.505000  -18.151000 -115.503000 T    2652 GLP    -0.6000 ****
7956 HO1   -11.399000  -19.697000 -125.342000 H    2652 GLP     0.4000 ****
7957 TO2    -2.519000  -18.567000 -105.744000 T    2653 GLP     0.6000 ****
7958 TO1    -2.754000  -20.296000 -115.591000 T    2653 GLP    -0.6000 ****
7959 HO1    -2.989000  -22.025000 -125.438000 H    2653 GLP     0.4000 ****
7960 TO2     4.773000  -17.644000 -105.825000 T    2654 GLP     0.6000 ****
7961 TO1     5.218000  -19.287000 -115.679000 T    2654 GLP    -0.6000 ****
7962 HO1     5.662000  -20.930000 -125.533000 H    2654 GLP     0.4000 ****
7963 TO2    11.104000  -13.920000 -105.905000 T    2655 GLP     0.6000 ****
7964 TO1    12.138000  -15.216000 -115.767000 T    2655 GLP    -0.6000 ****
7965 HO1    13.172000  -16.513000 -125.628000 H    2655 GLP     0.4000 ****
7966 TO2    15.384000   -7.961000 -105.985000 T    2656 GLP     0.6000 ****
7967 TO1    16.817000   -8.702000 -115.855000 T    2656 GLP    -0.6000 ****
7968 HO1    18.249000   -9.443000 -125.724000 H    2656 GLP     0.4000 ****
7969 TO2    16.805000   -0.770000 -106.066000 T    2657 GLP     0.6000 ****
7970 TO1    18.370000   -0.842000 -115.942000 T    2657 GLP    -0.6000 ****
7971 HO1    19.935000   -0.914000 -125.819000 H    2657 GLP     0.4000 ****
7972 TO2    15.029000    6.331000 -106.146000 T    2658 GLP     0.6000 ****
7973 TO1    16.429000    6.921000 -116.030000 T    2658 GLP    -0.6000 ****
7974 HO1    17.828000    7.510000 -125.914000 H    2658 GLP     0.4000 ****
7975 TO2    10.326000   11.927000 -106.227000 T    2659 GLP     0.6000 ****
7976 TO1    11.288000   13.038000 -116.118000 T    2659 GLP    -0.6000 ****
7977 HO1    12.249000   14.149000 -126.010000 H    2659 GLP     0.4000 ****
7978 TO2     3.613000   14.791000 -106.307000 T    2660 GLP     0.6000 ****
7979 TO1     3.949000   16.168000 -116.206000 T    2660 GLP    -0.6000 ****
7980 HO1     4.286000   17.545000 -126.105000 H    2660 GLP     0.4000 ****
7981 TO2    -3.647000   14.192000 -106.387000 T    2661 GLP     0.6000 ****
7982 TO1    -3.987000   15.514000 -116.294000 T    2661 GLP    -0.6000 ****
7983 HO1    -4.327000   16.835000 -126.200000 H    2661 GLP     0.4000 ****
7984 TO2    -9.704000   10.171000 -106.468000 T    2662 GLP     0.6000 ****
7985 TO1   -10.607000   11.119000 -116.382000 T    2662 GLP    -0.6000 ****
7986 HO1   -11.511000   12.066000 -126.296000 H    2662 GLP     0.4000 ****
7987 TO2   -12.923000    3.674000 -106.548000 T    2663 GLP     0.6000 ****
7988 TO1   -14.126000    4.016000 -116.469000 T    2663 GLP    -0.6000 ****
7989 HO1   -15.330000    4.358000 -126.391000 H    2663 GLP     0.4000 ****
7990 TO2   -12.285000   -3.527000 -106.628000 T    2664 GLP     0.6000 ****
7991 TO1   -13.429000   -3.856000 -116.557000 T    2664 GLP    -0.6000 ****
7992 HO1   -14.573000   -4.184000 -126.486000 H    2664 GLP     0.4000 ****
7993 TO2    -7.847000   -9.201000 -106.709000 T    2665 GLP     0.6000 ****
7994 TO1    -8.578000  -10.057000 -116.645000 T    2665 GLP    -0.6000 ****
7995 HO1    -9.309000  -10.914000 -126.581000 H    2665 GLP     0.4000 ****
7996 TO2    -0.996000  -11.317000 -106.789000 T    2666 GLP     0.6000 ****
7997 TO1    -1.089000  -12.371000 -116.733000 T    2666 GLP    -0.6000 ****
7998 HO1    -1.182000  -13.425000 -126.677000 H    2666 GLP     0.4000 ****
7999 TO2     5.712000   -8.904000 -106.869000 T    2667 GLP     0.6000 ****
8000 TO1     6.244000   -9.733000 -116.821000 T    2667 GLP    -0.6000 ****
8001 HO1     6.776000  -10.562000 -126.772000 H    2667 GLP     0.4000 ****
8002 TO2     9.317000   -2.816000 -106.950000 T    2668 GLP     0.6000 ****
8003 TO1    10.184000   -3.078000 -116.909000 T    2668 GLP    -0.6000 ****
8004 HO1    11.052000   -3.340000 -126.867000 H    2668 GLP     0.4000 ****
8005 TO2     7.831000    4.025000 -107.030000 T    2669 GLP     0.6000 ****
8006 TO1     8.560000    4.400000 -116.996000 T    2669 GLP    -0.6000 ****
8007 HO1     9.290000    4.775000 -126.963000 H    2669 GLP     0.4000 ****
8008 TO2     1.897000    7.532000 -107.110000 T    2670 GLP     0.6000 ****
8009 TO1     2.074000    8.233000 -117.084000 T    2670 GLP    -0.6000 ****
8010 HO1     2.250000    8.934000 -127.058000 H    2670 GLP     0.4000 ****
8011 TO2    -4.309000    4.953000 -107.191000 T    2671 GLP     0.6000 ****
8012 TO1    -4.711000    5.414000 -117.172000 T    2671 GLP    -0.6000 ****
8013 HO1    -5.112000    5.876000 -127.153000 H    2671 GLP     0.4000 ****
8014 TO2    -4.883000   -1.426000 -107.271000 T    2672 GLP     0.6000 ****
8015 TO1    -5.337000   -1.559000 -117.260000 T    2672 GLP    -0.6000 ****
8016 HO1    -5.792000   -1.692000 -127.249000 H    2672 GLP     0.4000 ****
8017 TO2     0.536000   -2.888000 -107.351000 T    2673 GLP     0.6000 ****
8018 TO1     0.586000   -3.157000 -117.348000 T    2673 GLP    -0.6000 ****
8019 HO1     0.636000   -3.426000 -127.344000 H    2673 GLP     0.4000 ****
8020 TC2    29.482000    0.754000   70.643000 T    2674 GCA     0.6000 ****
8021 TC1    29.067000    0.754000   60.652000 T    2674 GCA    -0.6000 ****
8022 HC1    28.652000    0.754000   50.661000 H    2674 GCA     0.4000 ****
8023 TC2    22.239000    3.644000   70.520000 T    2675 GCA     0.6000 ****
8024 TC1    22.833000    3.242000   60.546000 T    2675 GCA    -0.6000 ****
8025 HC1    23.427000    2.839000   50.572000 H    2675 GCA     0.4000 ****
8026 TC2    22.243000   -4.351000   70.397000 T    2676 GCA     0.6000 ****
8027 TC1    22.837000   -3.640000   60.440000 T    2676 GCA    -0.6000 ****
8028 HC1    23.431000   -2.929000   50.483000 H    2676 GCA     0.4000 ****
8029 TC2    29.884000   -6.348000   70.273000 T    2677 GCA     0.6000 ****
8030 TC1    29.413000   -5.359000   60.333000 T    2677 GCA    -0.6000 ****
8031 HC1    28.943000   -4.370000   50.393000 H    2677 GCA     0.4000 ****
8032 TC2    35.301000   -0.694000   70.150000 T    2678 GCA     0.6000 ****
8033 TC1    34.076000   -0.492000   60.227000 T    2678 GCA    -0.6000 ****
8034 HC1    32.851000   -0.291000   50.304000 H    2678 GCA     0.4000 ****
8035 TC2    34.121000    7.002000   70.026000 T    2679 GCA     0.6000 ****
8036 TC1    33.061000    6.131000   60.121000 T    2679 GCA    -0.6000 ****
8037 HC1    32.000000    5.261000   50.215000 H    2679 GCA     0.4000 ****
8038 TC2    27.728000   11.388000   69.903000 T    2680 GCA     0.6000 ****
8039 TC1    27.557000    9.907000   60.014000 T    2680 GCA    -0.6000 ****
8040 HC1    27.387000    8.426000   50.126000 H    2680 GCA     0.4000 ****
8041 TC2    20.077000   10.282000   69.779000 T    2681 GCA     0.6000 ****
8042 TC1    20.972000    8.954000   59.908000 T    2681 GCA    -0.6000 ****
8043 HC1    21.868000    7.627000   50.037000 H    2681 GCA     0.4000 ****
8044 TC2    14.887000    4.576000   69.656000 T    2682 GCA     0.6000 ****
8045 TC1    16.506000    4.044000   59.802000 T    2682 GCA    -0.6000 ****
8046 HC1    18.124000    3.511000   49.948000 H    2682 GCA     0.4000 ****
8047 TC2    14.165000   -3.088000   69.532000 T    2683 GCA     0.6000 ****
8048 TC1    15.884000   -2.553000   59.696000 T    2683 GCA    -0.6000 ****
8049 HC1    17.603000   -2.018000   49.859000 H    2683 GCA     0.4000 ****
8050 TC2    17.938000   -9.785000   69.409000 T    2684 GCA     0.6000 ****
8051 TC1    19.131000   -8.317000   59.589000 T    2684 GCA    -0.6000 ****
8052 HC1    20.324000   -6.849000   49.770000 H    2684 GCA     0.4000 ****
8053 TC2    24.740000  -13.343000   69.285000 T    2685 GCA     0.6000 ****
8054 TC1    24.986000  -11.380000   59.483000 T    2685 GCA    -0.6000 ****
8055 HC1    25.232000   -9.416000   49.681000 H    2685 GCA     0.4000 ****
8056 TC2    32.391000  -12.832000   69.162000 T    2686 GCA     0.6000 ****
8057 TC1    31.572000  -10.939000   59.377000 T    2686 GCA    -0.6000 ****
8058 HC1    30.752000   -9.047000   49.592000 H    2686 GCA     0.4000 ****
8059 TC2    38.748000   -8.555000   69.038000 T    2687 GCA     0.6000 ****
8060 TC1    37.043000   -7.258000   59.271000 T    2687 GCA    -0.6000 ****
8061 HC1    35.338000   -5.961000   49.503000 H    2687 GCA     0.4000 ****
8062 TC2    42.241000   -1.742000   68.915000 T    2688 GCA     0.6000 ****
8063 TC1    40.049000   -1.394000   59.164000 T    2688 GCA    -0.6000 ****
8064 HC1    37.857000   -1.047000   49.414000 H    2688 GCA     0.4000 ****
8065 TC2    42.143000    5.908000   68.792000 T    2689 GCA     0.6000 ****
8066 TC1    39.965000    5.190000   59.058000 T    2689 GCA    -0.6000 ****
8067 HC1    37.787000    4.472000   49.325000 H    2689 GCA     0.4000 ****
8068 TC2    38.593000   12.680000   68.668000 T    2690 GCA     0.6000 ****
8069 TC1    36.909000   11.019000   58.952000 T    2690 GCA    -0.6000 ****
8070 HC1    35.226000    9.358000   49.236000 H    2690 GCA     0.4000 ****
8071 TC2    32.430000   17.199000   68.545000 T    2691 GCA     0.6000 ****
8072 TC1    31.605000   14.909000   58.846000 T    2691 GCA    -0.6000 ****
8073 HC1    30.780000   12.618000   49.147000 H    2691 GCA     0.4000 ****
8074 TC2    24.931000   18.650000   68.421000 T    2692 GCA     0.6000 ****
8075 TC1    25.150000   16.157000   58.739000 T    2692 GCA    -0.6000 ****
8076 HC1    25.370000   13.665000   49.057000 H    2692 GCA     0.4000 ****
8077 TC2    17.512000   16.848000   68.298000 T    2693 GCA     0.6000 ****
8078 TC1    18.764000   14.606000   58.633000 T    2693 GCA    -0.6000 ****
8079 HC1    20.017000   12.364000   48.968000 H    2693 GCA     0.4000 ****
8080 TC2    11.465000   12.191000   68.174000 T    2694 GCA     0.6000 ****
8081 TC1    13.560000   10.598000   58.527000 T    2694 GCA    -0.6000 ****
8082 HC1    15.655000    9.005000   48.879000 H    2694 GCA     0.4000 ****
8083 TC2     7.760000    5.521000   68.051000 T    2695 GCA     0.6000 ****
8084 TC1    10.371000    4.857000   58.420000 T    2695 GCA    -0.6000 ****
8085 HC1    12.982000    4.193000   48.790000 H    2695 GCA     0.4000 ****
8086 TC2     6.929000   -2.061000   67.927000 T    2696 GCA     0.6000 ****
8087 TC1     9.656000   -1.669000   58.314000 T    2696 GCA    -0.6000 ****
8088 HC1    12.382000   -1.277000   48.701000 H    2696 GCA     0.4000 ****
8089 TC2     9.033000   -9.390000   67.804000 T    2697 GCA     0.6000 ****
8090 TC1    11.467000   -7.977000   58.208000 T    2697 GCA    -0.6000 ****
8091 HC1    13.900000   -6.564000   48.612000 H    2697 GCA     0.4000 ****
8092 TC2    13.706000  -15.413000   67.680000 T    2698 GCA     0.6000 ****
8093 TC1    15.489000  -13.161000   58.102000 T    2698 GCA    -0.6000 ****
8094 HC1    17.272000  -10.909000   48.523000 H    2698 GCA     0.4000 ****
8095 TC2    20.249000  -19.321000   67.557000 T    2699 GCA     0.6000 ****
8096 TC1    21.120000  -16.525000   57.995000 T    2699 GCA    -0.6000 ****
8097 HC1    21.992000  -13.729000   48.434000 H    2699 GCA     0.4000 ****
8098 TC2    27.754000  -20.636000   67.433000 T    2700 GCA     0.6000 ****
8099 TC1    27.580000  -17.656000   57.889000 T    2700 GCA    -0.6000 ****
8100 HC1    27.406000  -14.677000   48.345000 H    2700 GCA     0.4000 ****
8101 TC2    35.242000  -19.237000   67.310000 T    2701 GCA     0.6000 ****
8102 TC1    34.025000  -16.453000   57.783000 T    2701 GCA    -0.6000 ****
8103 HC1    32.808000  -13.668000   48.256000 H    2701 GCA     0.4000 ****
8104 TC2    41.790000  -15.347000   67.187000 T    2702 GCA     0.6000 ****
8105 TC1    39.661000  -13.104000   57.677000 T    2702 GCA    -0.6000 ****
8106 HC1    37.532000  -10.861000   48.167000 H    2702 GCA     0.4000 ****
8107 TC2    46.634000   -9.471000   67.063000 T    2703 GCA     0.6000 ****
8108 TC1    43.830000   -8.047000   57.570000 T    2703 GCA    -0.6000 ****
8109 HC1    41.026000   -6.622000   48.078000 H    2703 GCA     0.4000 ****
8110 TC2    49.244000   -2.319000   66.940000 T    2704 GCA     0.6000 ****
8111 TC1    46.077000   -1.891000   57.464000 T    2704 GCA    -0.6000 ****
8112 HC1    42.910000   -1.463000   47.989000 H    2704 GCA     0.4000 ****
8113 TC2    49.368000    5.293000   66.816000 T    2705 GCA     0.6000 ****
8114 TC1    46.183000    4.660000   57.358000 T    2705 GCA    -0.6000 ****
8115 HC1    42.999000    4.028000   47.900000 H    2705 GCA     0.4000 ****
8116 TC2    47.029000   12.536000   66.693000 T    2706 GCA     0.6000 ****
8117 TC1    44.170000   10.895000   57.252000 T    2706 GCA    -0.6000 ****
8118 HC1    41.312000    9.254000   47.810000 H    2706 GCA     0.4000 ****
8119 TC2    42.510000   18.659000   66.569000 T    2707 GCA     0.6000 ****
8120 TC1    40.281000   16.165000   57.145000 T    2707 GCA    -0.6000 ****
8121 HC1    38.052000   13.671000   47.721000 H    2707 GCA     0.4000 ****
8122 TC2    36.302000   23.058000   66.446000 T    2708 GCA     0.6000 ****
8123 TC1    34.937000   19.952000   57.039000 T    2708 GCA    -0.6000 ****
8124 HC1    33.573000   16.845000   47.632000 H    2708 GCA     0.4000 ****
8125 TC2    29.039000   25.324000   66.322000 T    2709 GCA     0.6000 ****
8126 TC1    28.686000   21.902000   56.933000 T    2709 GCA    -0.6000 ****
8127 HC1    28.333000   18.480000   47.543000 H    2709 GCA     0.4000 ****
8128 TC2    21.432000   25.269000   66.199000 T    2710 GCA     0.6000 ****
8129 TC1    22.138000   21.855000   56.827000 T    2710 GCA    -0.6000 ****
8130 HC1    22.845000   18.440000   47.454000 H    2710 GCA     0.4000 ****
8131 TC2    14.194000   22.930000   66.075000 T    2711 GCA     0.6000 ****
8132 TC1    15.909000   19.841000   56.720000 T    2711 GCA    -0.6000 ****
8133 HC1    17.623000   16.752000   47.365000 H    2711 GCA     0.4000 ****
8134 TC2     7.977000   18.548000   65.952000 T    2712 GCA     0.6000 ****
8135 TC1    10.558000   16.070000   56.614000 T    2712 GCA    -0.6000 ****
8136 HC1    13.139000   13.591000   47.276000 H    2712 GCA     0.4000 ****
8137 TC2     3.319000   12.537000   65.828000 T    2713 GCA     0.6000 ****
8138 TC1     6.548000   10.896000   56.508000 T    2713 GCA    -0.6000 ****
8139 HC1     9.778000    9.255000   47.187000 H    2713 GCA     0.4000 ****
8140 TC2     0.600000    5.436000   65.705000 T    2714 GCA     0.6000 ****
8141 TC1     4.209000    4.783000   56.401000 T    2714 GCA    -0.6000 ****
8142 HC1     7.817000    4.131000   47.098000 H    2714 GCA     0.4000 ****
8143 TC2     0.028000   -2.146000   65.582000 T    2715 GCA     0.6000 ****
8144 TC1     3.716000   -1.742000   56.295000 T    2715 GCA    -0.6000 ****
8145 HC1     7.404000   -1.338000   47.009000 H    2715 GCA     0.4000 ****
8146 TC2     1.623000   -9.580000   65.458000 T    2716 GCA     0.6000 ****
8147 TC1     5.089000   -8.141000   56.189000 T    2716 GCA    -0.6000 ****
8148 HC1     8.555000   -6.701000   46.920000 H    2716 GCA     0.4000 ****
8149 TC2     5.233000  -16.270000   65.335000 T    2717 GCA     0.6000 ****
8150 TC1     8.196000  -13.899000   56.083000 T    2717 GCA    -0.6000 ****
8151 HC1    11.159000  -11.528000   46.831000 H    2717 GCA     0.4000 ****
8152 TC2    10.553000  -21.701000   65.211000 T    2718 GCA     0.6000 ****
8153 TC1    12.775000  -18.573000   55.976000 T    2718 GCA    -0.6000 ****
8154 HC1    14.997000  -15.445000   46.742000 H    2718 GCA     0.4000 ****
8155 TC2    17.154000  -25.468000   65.088000 T    2719 GCA     0.6000 ****
8156 TC1    18.457000  -21.816000   55.870000 T    2719 GCA    -0.6000 ****
8157 HC1    19.759000  -18.163000   46.653000 H    2719 GCA     0.4000 ****
8158 TC2    24.529000  -27.308000   64.964000 T    2720 GCA     0.6000 ****
8159 TC1    24.804000  -23.399000   55.764000 T    2720 GCA    -0.6000 ****
8160 HC1    25.079000  -19.491000   46.564000 H    2720 GCA     0.4000 ****
8161 TC2    32.126000  -27.104000   64.841000 T    2721 GCA     0.6000 ****
8162 TC1    31.343000  -23.224000   55.658000 T    2721 GCA    -0.6000 ****
8163 HC1    30.560000  -19.344000   46.474000 H    2721 GCA     0.4000 ****
8164 TC2    39.396000  -24.893000   64.717000 T    2722 GCA     0.6000 ****
8165 TC1    37.601000  -21.320000   55.551000 T    2722 GCA    -0.6000 ****
8166 HC1    35.805000  -17.748000   46.385000 H    2722 GCA     0.4000 ****
8167 TC2    45.830000  -20.850000   64.594000 T    2723 GCA     0.6000 ****
8168 TC1    43.138000  -17.840000   55.445000 T    2723 GCA    -0.6000 ****
8169 HC1    40.447000  -14.831000   46.296000 H    2723 GCA     0.4000 ****
8170 TC2    50.991000  -15.272000   64.470000 T    2724 GCA     0.6000 ****
8171 TC1    47.580000  -13.040000   55.339000 T    2724 GCA    -0.6000 ****
8172 HC1    44.169000  -10.808000   46.207000 H    2724 GCA     0.4000 ****
8173 TC2    54.539000   -8.554000   64.347000 T    2725 GCA     0.6000 ****
8174 TC1    50.634000   -7.257000   55.233000 T    2725 GCA    -0.6000 ****
8175 HC1    46.730000   -5.961000   46.118000 H    2725 GCA     0.4000 ****
8176 TC2    56.255000   -1.152000   64.223000 T    2726 GCA     0.6000 ****
8177 TC1    52.111000   -0.887000   55.126000 T    2726 GCA    -0.6000 ****
8178 HC1    47.967000   -0.621000   46.029000 H    2726 GCA     0.4000 ****
8179 TC2    56.042000    6.442000   64.100000 T    2727 GCA     0.6000 ****
8180 TC1    51.928000    5.650000   55.020000 T    2727 GCA    -0.6000 ****
8181 HC1    47.814000    4.857000   45.940000 H    2727 GCA     0.4000 ****
8182 TC2    53.932000   13.740000   63.976000 T    2728 GCA     0.6000 ****
8183 TC1    50.112000   11.931000   54.914000 T    2728 GCA    -0.6000 ****
8184 HC1    46.292000   10.122000   45.851000 H    2728 GCA     0.4000 ****
8185 TC2    50.075000   20.284000   63.853000 T    2729 GCA     0.6000 ****
8186 TC1    46.792000   17.563000   54.807000 T    2729 GCA    -0.6000 ****
8187 HC1    43.509000   14.843000   45.762000 H    2729 GCA     0.4000 ****
8188 TC2    44.723000   25.675000   63.730000 T    2730 GCA     0.6000 ****
8189 TC1    42.186000   22.203000   54.701000 T    2730 GCA    -0.6000 ****
8190 HC1    39.648000   18.732000   45.673000 H    2730 GCA     0.4000 ****
8191 TC2    38.217000   29.594000   63.606000 T    2731 GCA     0.6000 ****
8192 TC1    36.586000   25.577000   54.595000 T    2731 GCA    -0.6000 ****
8193 HC1    34.955000   21.560000   45.584000 H    2731 GCA     0.4000 ****
8194 TC2    30.955000   31.820000   63.483000 T    2732 GCA     0.6000 ****
8195 TC1    30.336000   27.493000   54.489000 T    2732 GCA    -0.6000 ****
8196 HC1    29.716000   23.166000   45.495000 H    2732 GCA     0.4000 ****
8197 TC2    23.372000   32.234000   63.359000 T    2733 GCA     0.6000 ****
8198 TC1    23.808000   27.849000   54.382000 T    2733 GCA    -0.6000 ****
8199 HC1    24.245000   23.465000   45.406000 H    2733 GCA     0.4000 ****
8200 TC2    15.909000   30.828000   63.236000 T    2734 GCA     0.6000 ****
8201 TC1    17.385000   26.639000   54.276000 T    2734 GCA    -0.6000 ****
8202 HC1    18.861000   22.450000   45.317000 H    2734 GCA     0.4000 ****
8203 TC2     8.990000   27.695000   63.112000 T    2735 GCA     0.6000 ****
8204 TC1    11.430000   23.943000   54.170000 T    2735 GCA    -0.6000 ****
8205 HC1    13.870000   20.190000   45.227000 H    2735 GCA     0.4000 ****
8206 TC2     3.002000   23.026000   62.989000 T    2736 GCA     0.6000 ****
8207 TC1     6.276000   19.923000   54.064000 T    2736 GCA    -0.6000 ****
8208 HC1     9.549000   16.821000   45.138000 H    2736 GCA     0.4000 ****
8209 TC2    -1.733000   17.089000   62.865000 T    2737 GCA     0.6000 ****
8210 TC1     2.200000   14.814000   53.957000 T    2737 GCA    -0.6000 ****
8211 HC1     6.133000   12.538000   45.049000 H    2737 GCA     0.4000 ****
8212 TC2    -4.966000   10.218000   62.742000 T    2738 GCA     0.6000 ****
8213 TC1    -0.583000    8.900000   53.851000 T    2738 GCA    -0.6000 ****
8214 HC1     3.801000    7.582000   44.960000 H    2738 GCA     0.4000 ****
8215 TC2    -6.535000    2.789000   62.618000 T    2739 GCA     0.6000 ****
8216 TC1    -1.933000    2.505000   53.745000 T    2739 GCA    -0.6000 ****
8217 HC1     2.669000    2.222000   44.871000 H    2739 GCA     0.4000 ****
8218 TC2    -6.368000   -4.802000   62.495000 T    2740 GCA     0.6000 ****
8219 TC1    -1.789000   -4.028000   53.639000 T    2740 GCA    -0.6000 ****
8220 HC1     2.790000   -3.254000   44.782000 H    2740 GCA     0.4000 ****
8221 TC2    -4.486000  -12.158000   62.371000 T    2741 GCA     0.6000 ****
8222 TC1    -0.169000  -10.359000   53.532000 T    2741 GCA    -0.6000 ****
8223 HC1     4.147000   -8.561000   44.693000 H    2741 GCA     0.4000 ****
8224 TC2    -0.999000  -18.902000   62.248000 T    2742 GCA     0.6000 ****
8225 TC1     2.832000  -16.164000   53.426000 T    2742 GCA    -0.6000 ****
8226 HC1     6.663000  -13.426000   44.604000 H    2742 GCA     0.4000 ****
8227 TC2     3.906000  -24.697000   62.125000 T    2743 GCA     0.6000 ****
8228 TC1     7.054000  -21.152000   53.320000 T    2743 GCA    -0.6000 ****
8229 HC1    10.202000  -17.607000   44.515000 H    2743 GCA     0.4000 ****
8230 TC2     9.975000  -29.259000   62.001000 T    2744 GCA     0.6000 ****
8231 TC1    12.277000  -25.079000   53.213000 T    2744 GCA    -0.6000 ****
8232 HC1    14.580000  -20.898000   44.426000 H    2744 GCA     0.4000 ****
8233 TC2    16.899000  -32.372000   61.878000 T    2745 GCA     0.6000 ****
8234 TC1    18.237000  -27.758000   53.107000 T    2745 GCA    -0.6000 ****
8235 HC1    19.575000  -23.144000   44.337000 H    2745 GCA     0.4000 ****
8236 TC2    24.336000  -33.893000   61.754000 T    2746 GCA     0.6000 ****
8237 TC1    24.638000  -29.067000   53.001000 T    2746 GCA    -0.6000 ****
8238 HC1    24.940000  -24.241000   44.248000 H    2746 GCA     0.4000 ****
8239 TC2    31.926000  -33.761000   61.631000 T    2747 GCA     0.6000 ****
8240 TC1    31.171000  -28.953000   52.895000 T    2747 GCA    -0.6000 ****
8241 HC1    30.416000  -24.146000   44.159000 H    2747 GCA     0.4000 ****
8242 TC2    39.308000  -31.990000   61.507000 T    2748 GCA     0.6000 ****
8243 TC1    37.525000  -27.430000   52.788000 T    2748 GCA    -0.6000 ****
8244 HC1    35.741000  -22.869000   44.070000 H    2748 GCA     0.4000 ****
8245 TC2    46.137000  -28.676000   61.384000 T    2749 GCA     0.6000 ****
8246 TC1    43.402000  -24.577000   52.682000 T    2749 GCA    -0.6000 ****
8247 HC1    40.668000  -20.478000   43.981000 H    2749 GCA     0.4000 ****
8248 TC2    52.101000  -23.981000   61.260000 T    2750 GCA     0.6000 ****
8249 TC1    48.536000  -20.536000   52.576000 T    2750 GCA    -0.6000 ****
8250 HC1    44.971000  -17.090000   43.891000 H    2750 GCA     0.4000 ****
8251 TC2    56.933000  -18.127000   61.137000 T    2751 GCA     0.6000 ****
8252 TC1    52.695000  -15.497000   52.470000 T    2751 GCA    -0.6000 ****
8253 HC1    48.456000  -12.867000   43.802000 H    2751 GCA     0.4000 ****
8254 TC2    60.421000  -11.386000   61.013000 T    2752 GCA     0.6000 ****
8255 TC1    55.697000   -9.695000   52.363000 T    2752 GCA    -0.6000 ****
8256 HC1    50.973000   -8.004000   43.713000 H    2752 GCA     0.4000 ****
8257 TC2    62.419000   -4.064000   60.890000 T    2753 GCA     0.6000 ****
8258 TC1    57.416000   -3.393000   52.257000 T    2753 GCA    -0.6000 ****
8259 HC1    52.414000   -2.722000   43.624000 H    2753 GCA     0.4000 ****
8260 TC2    62.846000    3.514000   60.766000 T    2754 GCA     0.6000 ****
8261 TC1    57.784000    3.130000   52.151000 T    2754 GCA    -0.6000 ****
8262 HC1    52.722000    2.745000   43.535000 H    2754 GCA     0.4000 ****
8263 TC2    61.694000   11.016000   60.643000 T    2755 GCA     0.6000 ****
8264 TC1    56.793000    9.586000   52.045000 T    2755 GCA    -0.6000 ****
8265 HC1    51.891000    8.157000   43.446000 H    2755 GCA     0.4000 ****
8266 TC2    59.020000   18.119000   60.520000 T    2756 GCA     0.6000 ****
8267 TC1    54.491000   15.700000   51.938000 T    2756 GCA    -0.6000 ****
8268 HC1    49.962000   13.281000   43.357000 H    2756 GCA     0.4000 ****
8269 TC2    54.948000   24.523000   60.396000 T    2757 GCA     0.6000 ****
8270 TC1    50.987000   21.212000   51.832000 T    2757 GCA    -0.6000 ****
8271 HC1    47.025000   17.901000   43.268000 H    2757 GCA     0.4000 ****
8272 TC2    49.657000   29.963000   60.273000 T    2758 GCA     0.6000 ****
8273 TC1    46.432000   25.894000   51.726000 T    2758 GCA    -0.6000 ****
8274 HC1    43.207000   21.826000   43.179000 H    2758 GCA     0.4000 ****
8275 TC2    43.372000   34.217000   60.149000 T    2759 GCA     0.6000 ****
8276 TC1    41.023000   29.556000   51.619000 T    2759 GCA    -0.6000 ****
8277 HC1    38.673000   24.895000   43.090000 H    2759 GCA     0.4000 ****
8278 TC2    36.360000   37.117000   60.026000 T    2760 GCA     0.6000 ****
8279 TC1    34.987000   32.052000   51.513000 T    2760 GCA    -0.6000 ****
8280 HC1    33.614000   26.987000   43.001000 H    2760 GCA     0.4000 ****
8281 TC2    28.908000   38.552000   59.902000 T    2761 GCA     0.6000 ****
8282 TC1    28.573000   33.287000   51.407000 T    2761 GCA    -0.6000 ****
8283 HC1    28.238000   28.022000   42.912000 H    2761 GCA     0.4000 ****
8284 TC2    21.320000   38.472000   59.779000 T    2762 GCA     0.6000 ****
8285 TC1    22.042000   33.218000   51.301000 T    2762 GCA    -0.6000 ****
8286 HC1    22.764000   27.964000   42.823000 H    2762 GCA     0.4000 ****
8287 TC2    13.899000   36.887000   59.655000 T    2763 GCA     0.6000 ****
8288 TC1    15.655000   31.854000   51.194000 T    2763 GCA    -0.6000 ****
8289 HC1    17.411000   26.821000   42.734000 H    2763 GCA     0.4000 ****
8290 TC2     6.937000   33.869000   59.532000 T    2764 GCA     0.6000 ****
8291 TC1     9.662000   29.256000   51.088000 T    2764 GCA    -0.6000 ****
8292 HC1    12.388000   24.644000   42.644000 H    2764 GCA     0.4000 ****
8293 TC2     0.703000   29.542000   59.408000 T    2765 GCA     0.6000 ****
8294 TC1     4.297000   25.532000   50.982000 T    2765 GCA    -0.6000 ****
8295 HC1     7.891000   21.522000   42.555000 H    2765 GCA     0.4000 ****
8296 TC2    -4.564000   24.080000   59.285000 T    2766 GCA     0.6000 ****
8297 TC1    -0.236000   20.831000   50.876000 T    2766 GCA    -0.6000 ****
8298 HC1     4.091000   17.582000   42.466000 H    2766 GCA     0.4000 ****
8299 TC2    -8.668000   17.698000   59.161000 T    2767 GCA     0.6000 ****
8300 TC1    -3.769000   15.338000   50.769000 T    2767 GCA    -0.6000 ****
8301 HC1     1.130000   12.978000   42.377000 H    2767 GCA     0.4000 ****
8302 TC2   -11.460000   10.643000   59.038000 T    2768 GCA     0.6000 ****
8303 TC1    -6.172000    9.265000   50.663000 T    2768 GCA    -0.6000 ****
8304 HC1    -0.884000    7.888000   42.288000 H    2768 GCA     0.4000 ****
8305 TC2   -12.840000    3.182000   58.915000 T    2769 GCA     0.6000 ****
8306 TC1    -7.360000    2.844000   50.557000 T    2769 GCA    -0.6000 ****
8307 HC1    -1.880000    2.505000   42.199000 H    2769 GCA     0.4000 ****
8308 TC2   -12.765000   -4.405000   58.791000 T    2770 GCA     0.6000 ****
8309 TC1    -7.295000   -3.687000   50.451000 T    2770 GCA    -0.6000 ****
8310 HC1    -1.825000   -2.968000   42.110000 H    2770 GCA     0.4000 ****
8311 TC2   -11.244000  -11.838000   58.668000 T    2771 GCA     0.6000 ****
8312 TC1    -5.986000  -10.084000   50.344000 T    2771 GCA    -0.6000 ****
8313 HC1    -0.728000   -8.330000   42.021000 H    2771 GCA     0.4000 ****
8314 TC2    -8.338000  -18.847000   58.544000 T    2772 GCA     0.6000 ****
8315 TC1    -3.485000  -16.117000   50.238000 T    2772 GCA    -0.6000 ****
8316 HC1     1.368000  -13.387000   41.932000 H    2772 GCA     0.4000 ****
8317 TC2    -4.161000  -25.180000   58.421000 T    2773 GCA     0.6000 ****
8318 TC1     0.111000  -21.568000   50.132000 T    2773 GCA    -0.6000 ****
8319 HC1     4.382000  -17.956000   41.843000 H    2773 GCA     0.4000 ****
8320 TC2     1.134000  -30.614000   58.297000 T    2774 GCA     0.6000 ****
8321 TC1     4.668000  -26.245000   50.026000 T    2774 GCA    -0.6000 ****
8322 HC1     8.202000  -21.876000   41.754000 H    2774 GCA     0.4000 ****
8323 TC2     7.353000  -34.960000   58.174000 T    2775 GCA     0.6000 ****
8324 TC1    10.020000  -29.986000   49.919000 T    2775 GCA    -0.6000 ****
8325 HC1    12.688000  -25.011000   41.665000 H    2775 GCA     0.4000 ****
8326 TC2    14.273000  -38.070000   58.050000 T    2776 GCA     0.6000 ****
8327 TC1    15.976000  -32.662000   49.813000 T    2776 GCA    -0.6000 ****
8328 HC1    17.680000  -27.255000   41.576000 H    2776 GCA     0.4000 ****
8329 TC2    21.649000  -39.841000   57.927000 T    2777 GCA     0.6000 ****
8330 TC1    22.326000  -34.187000   49.707000 T    2777 GCA    -0.6000 ****
8331 HC1    23.002000  -28.532000   41.487000 H    2777 GCA     0.4000 ****
8332 TC2    29.226000  -40.218000   57.803000 T    2778 GCA     0.6000 ****
8333 TC1    28.847000  -34.511000   49.600000 T    2778 GCA    -0.6000 ****
8334 HC1    28.468000  -28.804000   41.398000 H    2778 GCA     0.4000 ****
8335 TC2    36.743000  -39.193000   57.680000 T    2779 GCA     0.6000 ****
8336 TC1    35.317000  -33.629000   49.494000 T    2779 GCA    -0.6000 ****
8337 HC1    33.891000  -28.065000   41.308000 H    2779 GCA     0.4000 ****
8338 TC2    43.945000  -36.809000   57.556000 T    2780 GCA     0.6000 ****
8339 TC1    41.516000  -31.577000   49.388000 T    2780 GCA    -0.6000 ****
8340 HC1    39.087000  -26.345000   41.219000 H    2780 GCA     0.4000 ****
8341 TC2    50.590000  -33.150000   57.433000 T    2781 GCA     0.6000 ****
8342 TC1    47.236000  -28.427000   49.282000 T    2781 GCA    -0.6000 ****
8343 HC1    43.881000  -23.705000   41.130000 H    2781 GCA     0.4000 ****
8344 TC2    56.460000  -28.344000   57.310000 T    2782 GCA     0.6000 ****
8345 TC1    52.288000  -24.291000   49.175000 T    2782 GCA    -0.6000 ****
8346 HC1    48.115000  -20.238000   41.041000 H    2782 GCA     0.4000 ****
8347 TC2    61.363000  -22.556000   57.186000 T    2783 GCA     0.6000 ****
8348 TC1    56.508000  -19.309000   49.069000 T    2783 GCA    -0.6000 ****
8349 HC1    51.652000  -16.062000   40.952000 H    2783 GCA     0.4000 ****
8350 TC2    65.142000  -15.978000   57.063000 T    2784 GCA     0.6000 ****
8351 TC1    59.760000  -13.648000   48.963000 T    2784 GCA    -0.6000 ****
8352 HC1    54.379000  -11.317000   40.863000 H    2784 GCA     0.4000 ****
8353 TC2    67.679000   -8.829000   56.939000 T    2785 GCA     0.6000 ****
8354 TC1    61.944000   -7.494000   48.857000 T    2785 GCA    -0.6000 ****
8355 HC1    56.209000   -6.160000   40.774000 H    2785 GCA     0.4000 ****
8356 TC2    68.897000   -1.342000   56.816000 T    2786 GCA     0.6000 ****
8357 TC1    62.992000   -1.050000   48.750000 T    2786 GCA    -0.6000 ****
8358 HC1    57.087000   -0.758000   40.685000 H    2786 GCA     0.4000 ****
8359 TC2    68.761000    6.242000   56.692000 T    2787 GCA     0.6000 ****
8360 TC1    62.876000    5.478000   48.644000 T    2787 GCA    -0.6000 ****
8361 HC1    56.990000    4.713000   40.596000 H    2787 GCA     0.4000 ****
8362 TC2    67.283000   13.682000   56.569000 T    2788 GCA     0.6000 ****
8363 TC1    61.603000   11.881000   48.538000 T    2788 GCA    -0.6000 ****
8364 HC1    55.923000   10.081000   40.507000 H    2788 GCA     0.4000 ****
8365 TC2    64.513000   20.744000   56.445000 T    2789 GCA     0.6000 ****
8366 TC1    59.219000   17.959000   48.432000 T    2789 GCA    -0.6000 ****
8367 HC1    53.925000   15.175000   40.418000 H    2789 GCA     0.4000 ****
8368 TC2    60.543000   27.207000   56.322000 T    2790 GCA     0.6000 ****
8369 TC1    55.802000   23.523000   48.325000 T    2790 GCA    -0.6000 ****
8370 HC1    51.061000   19.838000   40.329000 H    2790 GCA     0.4000 ****
8371 TC2    55.502000   32.874000   56.198000 T    2791 GCA     0.6000 ****
8372 TC1    51.463000   28.400000   48.219000 T    2791 GCA    -0.6000 ****
8373 HC1    47.424000   23.926000   40.240000 H    2791 GCA     0.4000 ****
8374 TC2    49.548000   37.574000   56.075000 T    2792 GCA     0.6000 ****
8375 TC1    46.338000   32.445000   48.113000 T    2792 GCA    -0.6000 ****
8376 HC1    43.129000   27.317000   40.151000 H    2792 GCA     0.4000 ****
8377 TC2    42.867000   41.165000   55.951000 T    2793 GCA     0.6000 ****
8378 TC1    40.588000   35.536000   48.006000 T    2793 GCA    -0.6000 ****
8379 HC1    38.309000   29.907000   40.061000 H    2793 GCA     0.4000 ****
8380 TC2    35.665000   43.544000   55.828000 T    2794 GCA     0.6000 ****
8381 TC1    34.389000   37.583000   47.900000 T    2794 GCA    -0.6000 ****
8382 HC1    33.113000   31.623000   39.972000 H    2794 GCA     0.4000 ****
8383 TC2    28.160000   44.642000   55.704000 T    2795 GCA     0.6000 ****
8384 TC1    27.929000   38.529000   47.794000 T    2795 GCA    -0.6000 ****
8385 HC1    27.699000   32.416000   39.883000 H    2795 GCA     0.4000 ****
8386 TC2    20.578000   44.432000   55.581000 T    2796 GCA     0.6000 ****
8387 TC1    21.404000   38.348000   47.688000 T    2796 GCA    -0.6000 ****
8388 HC1    22.229000   32.264000   39.794000 H    2796 GCA     0.4000 ****
8389 TC2    13.145000   42.925000   55.458000 T    2797 GCA     0.6000 ****
8390 TC1    15.006000   37.051000   47.581000 T    2797 GCA    -0.6000 ****
8391 HC1    16.867000   31.177000   39.705000 H    2797 GCA     0.4000 ****
8392 TC2     6.078000   40.169000   55.334000 T    2798 GCA     0.6000 ****
8393 TC1     8.924000   34.679000   47.475000 T    2798 GCA    -0.6000 ****
8394 HC1    11.769000   29.189000   39.616000 H    2798 GCA     0.4000 ****
8395 TC2    -0.415000   36.251000   55.211000 T    2799 GCA     0.6000 ****
8396 TC1     3.334000   31.306000   47.369000 T    2799 GCA    -0.6000 ****
8397 HC1     7.084000   26.362000   39.527000 H    2799 GCA     0.4000 ****
8398 TC2    -6.150000   31.287000   55.087000 T    2800 GCA     0.6000 ****
8399 TC1    -1.602000   27.034000   47.263000 T    2800 GCA    -0.6000 ****
8400 HC1     2.947000   22.781000   39.438000 H    2800 GCA     0.4000 ****
8401 TC2   -10.962000   25.425000   54.964000 T    2801 GCA     0.6000 ****
8402 TC1    -5.744000   21.989000   47.156000 T    2801 GCA    -0.6000 ****
8403 HC1    -0.525000   18.552000   39.349000 H    2801 GCA     0.4000 ****
8404 TC2   -14.718000   18.836000   54.840000 T    2802 GCA     0.6000 ****
8405 TC1    -8.976000   16.317000   47.050000 T    2802 GCA    -0.6000 ****
8406 HC1    -3.234000   13.799000   39.260000 H    2802 GCA     0.4000 ****
8407 TC2   -17.314000   11.710000   54.717000 T    2803 GCA     0.6000 ****
8408 TC1   -11.210000   10.184000   46.944000 T    2803 GCA    -0.6000 ****
8409 HC1    -5.107000    8.658000   39.171000 H    2803 GCA     0.4000 ****
8410 TC2   -18.679000    4.249000   54.593000 T    2804 GCA     0.6000 ****
8411 TC1   -12.386000    3.763000   46.838000 T    2804 GCA    -0.6000 ****
8412 HC1    -6.092000    3.276000   39.082000 H    2804 GCA     0.4000 ****
8413 TC2   -18.782000   -3.334000   54.470000 T    2805 GCA     0.6000 ****
8414 TC1   -12.474000   -2.764000   46.731000 T    2805 GCA    -0.6000 ****
8415 HC1    -6.166000   -2.195000   38.993000 H    2805 GCA     0.4000 ****
8416 TC2   -17.621000  -10.829000   54.346000 T    2806 GCA     0.6000 ****
8417 TC1   -11.475000   -9.215000   46.625000 T    2806 GCA    -0.6000 ****
8418 HC1    -5.329000   -7.602000   38.904000 H    2806 GCA     0.4000 ****
8419 TC2   -15.235000  -18.027000   54.223000 T    2807 GCA     0.6000 ****
8420 TC1    -9.421000  -15.411000   46.519000 T    2807 GCA    -0.6000 ****
8421 HC1    -3.607000  -12.795000   38.815000 H    2807 GCA     0.4000 ****
8422 TC2   -11.692000  -24.733000   54.099000 T    2808 GCA     0.6000 ****
8423 TC1    -6.372000  -21.183000   46.412000 T    2808 GCA    -0.6000 ****
8424 HC1    -1.051000  -17.633000   38.725000 H    2808 GCA     0.4000 ****
8425 TC2    -7.094000  -30.763000   53.976000 T    2809 GCA     0.6000 ****
8426 TC1    -2.414000  -26.373000   46.306000 T    2809 GCA    -0.6000 ****
8427 HC1     2.266000  -21.983000   38.636000 H    2809 GCA     0.4000 ****
8428 TC2    -1.568000  -35.957000   53.853000 T    2810 GCA     0.6000 ****
8429 TC1     2.342000  -30.844000   46.200000 T    2810 GCA    -0.6000 ****
8430 HC1     6.253000  -25.730000   38.547000 H    2810 GCA     0.4000 ****
8431 TC2     4.733000  -40.177000   53.729000 T    2811 GCA     0.6000 ****
8432 TC1     7.766000  -34.476000   46.094000 T    2811 GCA    -0.6000 ****
8433 HC1    10.798000  -28.775000   38.458000 H    2811 GCA     0.4000 ****
8434 TC2    11.638000  -43.313000   53.606000 T    2812 GCA     0.6000 ****
8435 TC1    13.709000  -37.175000   45.987000 T    2812 GCA    -0.6000 ****
8436 HC1    15.780000  -31.037000   38.369000 H    2812 GCA     0.4000 ****
8437 TC2    18.961000  -45.284000   53.482000 T    2813 GCA     0.6000 ****
8438 TC1    20.012000  -38.871000   45.881000 T    2813 GCA    -0.6000 ****
8439 HC1    21.063000  -32.459000   38.280000 H    2813 GCA     0.4000 ****
8440 TC2    26.507000  -46.042000   53.359000 T    2814 GCA     0.6000 ****
8441 TC1    26.506000  -39.524000   45.775000 T    2814 GCA    -0.6000 ****
8442 HC1    26.506000  -33.006000   38.191000 H    2814 GCA     0.4000 ****
8443 TC2    34.075000  -45.570000   53.235000 T    2815 GCA     0.6000 ****
8444 TC1    33.021000  -39.118000   45.669000 T    2815 GCA    -0.6000 ****
8445 HC1    31.967000  -32.666000   38.102000 H    2815 GCA     0.4000 ****
8446 TC2    41.469000  -43.886000   53.112000 T    2816 GCA     0.6000 ****
8447 TC1    39.385000  -37.668000   45.562000 T    2816 GCA    -0.6000 ****
8448 HC1    37.301000  -31.450000   38.013000 H    2816 GCA     0.4000 ****
8449 TC2    48.497000  -41.036000   52.988000 T    2817 GCA     0.6000 ****
8450 TC1    45.434000  -35.215000   45.456000 T    2817 GCA    -0.6000 ****
8451 HC1    42.370000  -29.394000   37.924000 H    2817 GCA     0.4000 ****
8452 TC2    54.977000  -37.097000   52.865000 T    2818 GCA     0.6000 ****
8453 TC1    51.011000  -31.825000   45.350000 T    2818 GCA    -0.6000 ****
8454 HC1    47.045000  -26.553000   37.835000 H    2818 GCA     0.4000 ****
8455 TC2    60.745000  -32.175000   52.741000 T    2819 GCA     0.6000 ****
8456 TC1    55.976000  -27.588000   45.244000 T    2819 GCA    -0.6000 ****
8457 HC1    51.207000  -23.002000   37.746000 H    2819 GCA     0.4000 ****
8458 TC2    65.656000  -26.397000   52.618000 T    2820 GCA     0.6000 ****
8459 TC1    60.203000  -22.615000   45.137000 T    2820 GCA    -0.6000 ****
8460 HC1    54.749000  -18.833000   37.657000 H    2820 GCA     0.4000 ****
8461 TC2    69.588000  -19.912000   52.494000 T    2821 GCA     0.6000 ****
8462 TC1    63.587000  -17.034000   45.031000 T    2821 GCA    -0.6000 ****
8463 HC1    57.586000  -14.155000   37.568000 H    2821 GCA     0.4000 ****
8464 TC2    72.443000  -12.888000   52.371000 T    2822 GCA     0.6000 ****
8465 TC1    66.045000  -10.988000   44.925000 T    2822 GCA    -0.6000 ****
8466 HC1    59.646000   -9.087000   37.478000 H    2822 GCA     0.4000 ****
8467 TC2    74.155000   -5.500000   52.248000 T    2823 GCA     0.6000 ****
8468 TC1    67.518000   -4.629000   44.818000 T    2823 GCA    -0.6000 ****
8469 HC1    60.881000   -3.758000   37.389000 H    2823 GCA     0.4000 ****
8470 TC2    74.682000    2.064000   52.124000 T    2824 GCA     0.6000 ****
8471 TC1    67.972000    1.882000   44.712000 T    2824 GCA    -0.6000 ****
8472 HC1    61.261000    1.699000   37.300000 H    2824 GCA     0.4000 ****
8473 TC2    74.016000    9.618000   52.001000 T    2825 GCA     0.6000 ****
8474 TC1    67.398000    8.383000   44.606000 T    2825 GCA    -0.6000 ****
8475 HC1    60.781000    7.148000   37.211000 H    2825 GCA     0.4000 ****
8476 TC2    72.177000   16.974000   51.877000 T    2826 GCA     0.6000 ****
8477 TC1    65.815000   14.715000   44.500000 T    2826 GCA    -0.6000 ****
8478 HC1    59.454000   12.455000   37.122000 H    2826 GCA     0.4000 ****
8479 TC2    69.211000   23.953000   51.754000 T    2827 GCA     0.6000 ****
8480 TC1    63.263000   20.722000   44.393000 T    2827 GCA    -0.6000 ****
8481 HC1    57.314000   17.490000   37.033000 H    2827 GCA     0.4000 ****
8482 TC2    65.197000   30.386000   51.630000 T    2828 GCA     0.6000 ****
8483 TC1    59.807000   26.258000   44.287000 T    2828 GCA    -0.6000 ****
8484 HC1    54.418000   22.131000   36.944000 H    2828 GCA     0.4000 ****
8485 TC2    60.232000   36.117000   51.507000 T    2829 GCA     0.6000 ****
8486 TC1    55.534000   31.191000   44.181000 T    2829 GCA    -0.6000 ****
8487 HC1    50.837000   26.266000   36.855000 H    2829 GCA     0.4000 ****
8488 TC2    54.441000   41.011000   51.383000 T    2830 GCA     0.6000 ****
8489 TC1    50.549000   35.404000   44.075000 T    2830 GCA    -0.6000 ****
8490 HC1    46.658000   29.796000   36.766000 H    2830 GCA     0.4000 ****
8491 TC2    47.963000   44.953000   51.260000 T    2831 GCA     0.6000 ****
8492 TC1    44.974000   38.796000   43.968000 T    2831 GCA    -0.6000 ****
8493 HC1    41.985000   32.640000   36.677000 H    2831 GCA     0.4000 ****
8494 TC2    40.956000   47.850000   51.136000 T    2832 GCA     0.6000 ****
8495 TC1    38.943000   41.290000   43.862000 T    2832 GCA    -0.6000 ****
8496 HC1    36.930000   34.730000   36.588000 H    2832 GCA     0.4000 ****
8497 TC2    33.587000   49.638000   51.013000 T    2833 GCA     0.6000 ****
8498 TC1    32.601000   42.829000   43.756000 T    2833 GCA    -0.6000 ****
8499 HC1    31.614000   36.020000   36.499000 H    2833 GCA     0.4000 ****
8500 TC2    26.032000   50.276000   50.889000 T    2834 GCA     0.6000 ****
8501 TC1    26.098000   43.378000   43.650000 T    2834 GCA    -0.6000 ****
8502 HC1    26.164000   36.480000   36.410000 H    2834 GCA     0.4000 ****
8503 TC2    18.467000   49.752000   50.766000 T    2835 GCA     0.6000 ****
8504 TC1    19.587000   42.927000   43.543000 T    2835 GCA    -0.6000 ****
8505 HC1    20.707000   36.102000   36.321000 H    2835 GCA     0.4000 ****
8506 TC2    11.071000   48.083000   50.643000 T    2836 GCA     0.6000 ****
8507 TC1    13.221000   41.490000   43.437000 T    2836 GCA    -0.6000 ****
8508 HC1    15.371000   34.898000   36.232000 H    2836 GCA     0.4000 ****
8509 TC2     4.015000   45.309000   50.519000 T    2837 GCA     0.6000 ****
8510 TC1     7.147000   39.103000   43.331000 T    2837 GCA    -0.6000 ****
8511 HC1    10.280000   32.897000   36.142000 H    2837 GCA     0.4000 ****
8512 TC2    -2.540000   41.498000   50.396000 T    2838 GCA     0.6000 ****
8513 TC1     1.505000   35.823000   43.224000 T    2838 GCA    -0.6000 ****
8514 HC1     5.551000   30.148000   36.053000 H    2838 GCA     0.4000 ****
8515 TC2    -8.444000   36.740000   50.272000 T    2839 GCA     0.6000 ****
8516 TC1    -3.576000   31.728000   43.118000 T    2839 GCA    -0.6000 ****
8517 HC1     1.292000   26.715000   35.964000 H    2839 GCA     0.4000 ****
8518 TC2   -13.562000   31.146000   50.149000 T    2840 GCA     0.6000 ****
8519 TC1    -7.981000   26.913000   43.012000 T    2840 GCA    -0.6000 ****
8520 HC1    -2.400000   22.680000   35.875000 H    2840 GCA     0.4000 ****
8521 TC2   -17.781000   24.846000   50.025000 T    2841 GCA     0.6000 ****
8522 TC1   -11.613000   21.491000   42.906000 T    2841 GCA    -0.6000 ****
8523 HC1    -5.444000   18.135000   35.786000 H    2841 GCA     0.4000 ****
8524 TC2   -21.007000   17.985000   49.902000 T    2842 GCA     0.6000 ****
8525 TC1   -14.389000   15.585000   42.799000 T    2842 GCA    -0.6000 ****
8526 HC1    -7.771000   13.185000   35.697000 H    2842 GCA     0.4000 ****
8527 TC2   -23.170000   10.718000   49.778000 T    2843 GCA     0.6000 ****
8528 TC1   -16.251000    9.330000   42.693000 T    2843 GCA    -0.6000 ****
8529 HC1    -9.332000    7.942000   35.608000 H    2843 GCA     0.4000 ****
8530 TC2   -24.224000    3.210000   49.655000 T    2844 GCA     0.6000 ****
8531 TC1   -17.158000    2.868000   42.587000 T    2844 GCA    -0.6000 ****
8532 HC1   -10.092000    2.526000   35.519000 H    2844 GCA     0.4000 ****
8533 TC2   -24.147000   -4.372000   49.531000 T    2845 GCA     0.6000 ****
8534 TC1   -17.092000   -3.658000   42.481000 T    2845 GCA    -0.6000 ****
8535 HC1   -10.037000   -2.944000   35.430000 H    2845 GCA     0.4000 ****
8536 TC2   -22.946000  -11.858000   49.408000 T    2846 GCA     0.6000 ****
8537 TC1   -16.058000  -10.101000   42.374000 T    2846 GCA    -0.6000 ****
8538 HC1    -9.170000   -8.344000   35.341000 H    2846 GCA     0.4000 ****
8539 TC2   -20.648000  -19.083000   49.284000 T    2847 GCA     0.6000 ****
8540 TC1   -14.080000  -16.320000   42.268000 T    2847 GCA    -0.6000 ****
8541 HC1    -7.512000  -13.557000   35.252000 H    2847 GCA     0.4000 ****
8542 TC2   -17.307000  -25.889000   49.161000 T    2848 GCA     0.6000 ****
8543 TC1   -11.204000  -22.178000   42.162000 T    2848 GCA    -0.6000 ****
8544 HC1    -5.102000  -18.467000   35.163000 H    2848 GCA     0.4000 ****
8545 TC2   -12.998000  -32.128000   49.038000 T    2849 GCA     0.6000 ****
8546 TC1    -7.496000  -27.548000   42.056000 T    2849 GCA    -0.6000 ****
8547 HC1    -1.994000  -22.968000   35.074000 H    2849 GCA     0.4000 ****
8548 TC2    -7.819000  -37.664000   48.914000 T    2850 GCA     0.6000 ****
8549 TC1    -3.038000  -32.313000   41.949000 T    2850 GCA    -0.6000 ****
8550 HC1     1.743000  -26.962000   34.985000 H    2850 GCA     0.4000 ****
8551 TC2    -1.882000  -42.380000   48.791000 T    2851 GCA     0.6000 ****
8552 TC1     2.072000  -36.372000   41.843000 T    2851 GCA    -0.6000 ****
8553 HC1     6.026000  -30.364000   34.895000 H    2851 GCA     0.4000 ****
8554 TC2     4.681000  -46.176000   48.667000 T    2852 GCA     0.6000 ****
8555 TC1     7.721000  -39.639000   41.737000 T    2852 GCA    -0.6000 ****
8556 HC1    10.760000  -33.102000   34.806000 H    2852 GCA     0.4000 ****
8557 TC2    11.728000  -48.971000   48.544000 T    2853 GCA     0.6000 ****
8558 TC1    13.786000  -42.045000   41.631000 T    2853 GCA    -0.6000 ****
8559 HC1    15.845000  -35.119000   34.717000 H    2853 GCA     0.4000 ****
8560 TC2    19.108000  -50.710000   48.420000 T    2854 GCA     0.6000 ****
8561 TC1    20.138000  -43.541000   41.524000 T    2854 GCA    -0.6000 ****
8562 HC1    21.168000  -36.373000   34.628000 H    2854 GCA     0.4000 ****
8563 TC2    26.662000  -51.356000   48.297000 T    2855 GCA     0.6000 ****
8564 TC1    26.640000  -44.097000   41.418000 T    2855 GCA    -0.6000 ****
8565 HC1    26.618000  -36.839000   34.539000 H    2855 GCA     0.4000 ****
8566 TC2    34.229000  -50.898000   48.173000 T    2856 GCA     0.6000 ****
8567 TC1    33.153000  -43.704000   41.312000 T    2856 GCA    -0.6000 ****
8568 HC1    32.077000  -36.509000   34.450000 H    2856 GCA     0.4000 ****
8569 TC2    41.651000  -49.350000   48.050000 T    2857 GCA     0.6000 ****
8570 TC1    39.541000  -42.371000   41.205000 T    2857 GCA    -0.6000 ****
8571 HC1    37.432000  -35.392000   34.361000 H    2857 GCA     0.4000 ****
8572 TC2    48.771000  -46.745000   47.926000 T    2858 GCA     0.6000 ****
8573 TC1    45.669000  -40.129000   41.099000 T    2858 GCA    -0.6000 ****
8574 HC1    42.568000  -33.513000   34.272000 H    2858 GCA     0.4000 ****
8575 TC2    55.440000  -43.140000   47.803000 T    2859 GCA     0.6000 ****
8576 TC1    51.410000  -37.026000   40.993000 T    2859 GCA    -0.6000 ****
8577 HC1    47.380000  -30.912000   34.183000 H    2859 GCA     0.4000 ****
8578 TC2    61.522000  -38.614000   47.679000 T    2860 GCA     0.6000 ****
8579 TC1    56.645000  -33.130000   40.887000 T    2860 GCA    -0.6000 ****
8580 HC1    51.767000  -27.647000   34.094000 H    2860 GCA     0.4000 ****
8581 TC2    66.891000  -33.261000   47.556000 T    2861 GCA     0.6000 ****
8582 TC1    61.266000  -28.523000   40.780000 T    2861 GCA    -0.6000 ****
8583 HC1    55.640000  -23.785000   34.005000 H    2861 GCA     0.4000 ****
8584 TC2    71.437000  -27.195000   47.433000 T    2862 GCA     0.6000 ****
8585 TC1    65.179000  -23.302000   40.674000 T    2862 GCA    -0.6000 ****
8586 HC1    58.920000  -19.409000   33.916000 H    2862 GCA     0.4000 ****
8587 TC2    75.070000  -20.540000   47.309000 T    2863 GCA     0.6000 ****
8588 TC1    68.306000  -17.574000   40.568000 T    2863 GCA    -0.6000 ****
8589 HC1    61.541000  -14.608000   33.827000 H    2863 GCA     0.4000 ****
8590 TC2    77.716000  -13.436000   47.186000 T    2864 GCA     0.6000 ****
8591 TC1    70.583000  -11.460000   40.462000 T    2864 GCA    -0.6000 ****
8592 HC1    63.450000   -9.483000   33.738000 H    2864 GCA     0.4000 ****
8593 TC2    79.324000   -6.027000   47.062000 T    2865 GCA     0.6000 ****
8594 TC1    71.967000   -5.083000   40.355000 T    2865 GCA    -0.6000 ****
8595 HC1    64.610000   -4.138000   33.649000 H    2865 GCA     0.4000 ****
8596 TC2    79.863000    1.534000   46.939000 T    2866 GCA     0.6000 ****
8597 TC1    72.431000    1.426000   40.249000 T    2866 GCA    -0.6000 ****
8598 HC1    64.999000    1.317000   33.559000 H    2866 GCA     0.4000 ****
8599 TC2    79.325000    9.096000   46.815000 T    2867 GCA     0.6000 ****
8600 TC1    71.968000    7.934000   40.143000 T    2867 GCA    -0.6000 ****
8601 HC1    64.611000    6.772000   33.470000 H    2867 GCA     0.4000 ****
8602 TC2    77.723000   16.506000   46.692000 T    2868 GCA     0.6000 ****
8603 TC1    70.589000   14.312000   40.037000 T    2868 GCA    -0.6000 ****
8604 HC1    63.455000   12.118000   33.381000 H    2868 GCA     0.4000 ****
8605 TC2    75.090000   23.615000   46.568000 T    2869 GCA     0.6000 ****
8606 TC1    68.323000   20.431000   39.930000 T    2869 GCA    -0.6000 ****
8607 HC1    61.556000   17.247000   33.292000 H    2869 GCA     0.4000 ****
8608 TC2    71.482000   30.283000   46.445000 T    2870 GCA     0.6000 ****
8609 TC1    65.218000   26.170000   39.824000 T    2870 GCA    -0.6000 ****
8610 HC1    58.953000   22.057000   33.203000 H    2870 GCA     0.4000 ****
8611 TC2    66.973000   36.377000   46.321000 T    2871 GCA     0.6000 ****
8612 TC1    61.336000   31.415000   39.718000 T    2871 GCA    -0.6000 ****
8613 HC1    55.700000   26.453000   33.114000 H    2871 GCA     0.4000 ****
8614 TC2    61.653000   41.778000   46.198000 T    2872 GCA     0.6000 ****
8615 TC1    56.757000   36.063000   39.611000 T    2872 GCA    -0.6000 ****
8616 HC1    51.862000   30.349000   33.025000 H    2872 GCA     0.4000 ****
8617 TC2    55.629000   46.380000   46.074000 T    2873 GCA     0.6000 ****
8618 TC1    51.573000   40.025000   39.505000 T    2873 GCA    -0.6000 ****
8619 HC1    47.516000   33.670000   32.936000 H    2873 GCA     0.4000 ****
8620 TC2    49.022000   50.096000   45.951000 T    2874 GCA     0.6000 ****
8621 TC1    45.885000   43.223000   39.399000 T    2874 GCA    -0.6000 ****
8622 HC1    42.749000   36.350000   32.847000 H    2874 GCA     0.4000 ****
8623 TC2    41.960000   52.853000   45.827000 T    2875 GCA     0.6000 ****
8624 TC1    39.807000   45.597000   39.293000 T    2875 GCA    -0.6000 ****
8625 HC1    37.655000   38.340000   32.758000 H    2875 GCA     0.4000 ****
8626 TC2    34.584000   54.601000   45.704000 T    2876 GCA     0.6000 ****
8627 TC1    33.458000   47.101000   39.186000 T    2876 GCA    -0.6000 ****
8628 HC1    32.333000   39.601000   32.669000 H    2876 GCA     0.4000 ****
8629 TC2    27.036000   55.307000   45.581000 T    2877 GCA     0.6000 ****
8630 TC1    26.962000   47.708000   39.080000 T    2877 GCA    -0.6000 ****
8631 HC1    26.888000   40.110000   32.580000 H    2877 GCA     0.4000 ****
8632 TC2    19.463000   54.960000   45.457000 T    2878 GCA     0.6000 ****
8633 TC1    20.444000   47.409000   38.974000 T    2878 GCA    -0.6000 ****
8634 HC1    21.425000   39.859000   32.491000 H    2878 GCA     0.4000 ****
8635 TC2    12.011000   53.567000   45.334000 T    2879 GCA     0.6000 ****
8636 TC1    14.030000   46.211000   38.868000 T    2879 GCA    -0.6000 ****
8637 HC1    16.049000   38.855000   32.402000 H    2879 GCA     0.4000 ****
8638 TC2     4.823000   51.159000   45.210000 T    2880 GCA     0.6000 ****
8639 TC1     7.843000   44.138000   38.761000 T    2880 GCA    -0.6000 ****
8640 HC1    10.863000   37.117000   32.312000 H    2880 GCA     0.4000 ****
8641 TC2    -1.964000   47.783000   45.087000 T    2881 GCA     0.6000 ****
8642 TC1     2.002000   41.232000   38.655000 T    2881 GCA    -0.6000 ****
8643 HC1     5.967000   34.682000   32.223000 H    2881 GCA     0.4000 ****
8644 TC2    -8.222000   43.504000   44.963000 T    2882 GCA     0.6000 ****
8645 TC1    -3.385000   37.550000   38.549000 T    2882 GCA    -0.6000 ****
8646 HC1     1.452000   31.595000   32.134000 H    2882 GCA     0.4000 ****
8647 TC2   -13.833000   38.407000   44.840000 T    2883 GCA     0.6000 ****
8648 TC1    -8.214000   33.163000   38.443000 T    2883 GCA    -0.6000 ****
8649 HC1    -2.596000   27.918000   32.045000 H    2883 GCA     0.4000 ****
8650 TC2   -18.692000   32.589000   44.716000 T    2884 GCA     0.6000 ****
8651 TC1   -12.397000   28.155000   38.336000 T    2884 GCA    -0.6000 ****
8652 HC1    -6.101000   23.720000   31.956000 H    2884 GCA     0.4000 ****
8653 TC2   -22.709000   26.161000   44.593000 T    2885 GCA     0.6000 ****
8654 TC1   -15.854000   22.622000   38.230000 T    2885 GCA    -0.6000 ****
8655 HC1    -8.999000   19.083000   31.867000 H    2885 GCA     0.4000 ****
8656 TC2   -25.811000   19.244000   44.469000 T    2886 GCA     0.6000 ****
8657 TC1   -18.524000   16.668000   38.124000 T    2886 GCA    -0.6000 ****
8658 HC1   -11.237000   14.093000   31.778000 H    2886 GCA     0.4000 ****
8659 TC2   -27.940000   11.968000   44.346000 T    2887 GCA     0.6000 ****
8660 TC1   -20.356000   10.406000   38.017000 T    2887 GCA    -0.6000 ****
8661 HC1   -12.773000    8.844000   31.689000 H    2887 GCA     0.4000 ****
8662 TC2   -29.060000    4.471000   44.222000 T    2888 GCA     0.6000 ****
8663 TC1   -21.320000    3.953000   37.911000 T    2888 GCA    -0.6000 ****
8664 HC1   -13.581000    3.436000   31.600000 H    2888 GCA     0.4000 ****
8665 TC2   -29.150000   -3.109000   44.099000 T    2889 GCA     0.6000 ****
8666 TC1   -21.398000   -2.571000   37.805000 T    2889 GCA    -0.6000 ****
8667 HC1   -13.646000   -2.033000   31.511000 H    2889 GCA     0.4000 ****
8668 TC2   -28.212000  -10.631000   43.976000 T    2890 GCA     0.6000 ****
8669 TC1   -20.590000   -9.045000   37.699000 T    2890 GCA    -0.6000 ****
8670 HC1   -12.969000   -7.459000   31.422000 H    2890 GCA     0.4000 ****
8671 TC2   -26.264000  -17.957000   43.852000 T    2891 GCA     0.6000 ****
8672 TC1   -18.914000  -15.351000   37.592000 T    2891 GCA    -0.6000 ****
8673 HC1   -11.564000  -12.744000   31.333000 H    2891 GCA     0.4000 ****
8674 TC2   -23.344000  -24.952000   43.729000 T    2892 GCA     0.6000 ****
8675 TC1   -16.401000  -21.372000   37.486000 T    2892 GCA    -0.6000 ****
8676 HC1    -9.457000  -17.791000   31.244000 H    2892 GCA     0.4000 ****
8677 TC2   -19.507000  -31.490000   43.605000 T    2893 GCA     0.6000 ****
8678 TC1   -13.098000  -26.998000   37.380000 T    2893 GCA    -0.6000 ****
8679 HC1    -6.689000  -22.507000   31.155000 H    2893 GCA     0.4000 ****
8680 TC2   -14.825000  -37.451000   43.482000 T    2894 GCA     0.6000 ****
8681 TC1    -9.068000  -32.130000   37.274000 T    2894 GCA    -0.6000 ****
8682 HC1    -3.312000  -26.808000   31.066000 H    2894 GCA     0.4000 ****
8683 TC2    -9.384000  -42.729000   43.358000 T    2895 GCA     0.6000 ****
8684 TC1    -4.385000  -36.672000   37.167000 T    2895 GCA    -0.6000 ****
8685 HC1     0.614000  -30.616000   30.976000 H    2895 GCA     0.4000 ****
8686 TC2    -3.284000  -47.229000   43.235000 T    2896 GCA     0.6000 ****
8687 TC1     0.865000  -40.545000   37.061000 T    2896 GCA    -0.6000 ****
8688 HC1     5.014000  -33.862000   30.887000 H    2896 GCA     0.4000 ****
8689 TC2     3.363000  -50.871000   43.111000 T    2897 GCA     0.6000 ****
8690 TC1     6.587000  -43.680000   36.955000 T    2897 GCA    -0.6000 ****
8691 HC1     9.810000  -36.490000   30.798000 H    2897 GCA     0.4000 ****
8692 TC2    10.438000  -53.592000   42.988000 T    2898 GCA     0.6000 ****
8693 TC1    12.676000  -46.022000   36.849000 T    2898 GCA    -0.6000 ****
8694 HC1    14.914000  -38.452000   30.709000 H    2898 GCA     0.4000 ****
8695 TC2    17.813000  -55.343000   42.864000 T    2899 GCA     0.6000 ****
8696 TC1    19.024000  -47.530000   36.742000 T    2899 GCA    -0.6000 ****
8697 HC1    20.235000  -39.716000   30.620000 H    2899 GCA     0.4000 ****
8698 TC2    25.356000  -56.097000   42.741000 T    2900 GCA     0.6000 ****
8699 TC1    25.516000  -48.178000   36.636000 T    2900 GCA    -0.6000 ****
8700 HC1    25.676000  -40.259000   30.531000 H    2900 GCA     0.4000 ****
8701 TC2    32.932000  -55.839000   42.617000 T    2901 GCA     0.6000 ****
8702 TC1    32.036000  -47.957000   36.530000 T    2901 GCA    -0.6000 ****
8703 HC1    31.141000  -40.074000   30.442000 H    2901 GCA     0.4000 ****
8704 TC2    40.406000  -54.578000   42.494000 T    2902 GCA     0.6000 ****
8705 TC1    38.470000  -46.871000   36.423000 T    2902 GCA    -0.6000 ****
8706 HC1    36.533000  -39.164000   30.353000 H    2902 GCA     0.4000 ****
8707 TC2    47.647000  -52.337000   42.371000 T    2903 GCA     0.6000 ****
8708 TC1    44.702000  -44.942000   36.317000 T    2903 GCA    -0.6000 ****
8709 HC1    41.757000  -37.547000   30.264000 H    2903 GCA     0.4000 ****
8710 TC2    54.528000  -49.157000   42.247000 T    2904 GCA     0.6000 ****
8711 TC1    50.624000  -42.205000   36.211000 T    2904 GCA    -0.6000 ****
8712 HC1    46.721000  -35.253000   30.175000 H    2904 GCA     0.4000 ****
8713 TC2    60.927000  -45.095000   42.124000 T    2905 GCA     0.6000 ****
8714 TC1    56.133000  -38.709000   36.105000 T    2905 GCA    -0.6000 ****
8715 HC1    51.338000  -32.323000   30.086000 H    2905 GCA     0.4000 ****
8716 TC2    66.735000  -40.224000   42.000000 T    2906 GCA     0.6000 ****
8717 TC1    61.132000  -34.517000   35.998000 T    2906 GCA    -0.6000 ****
8718 HC1    55.528000  -28.809000   29.997000 H    2906 GCA     0.4000 ****
8719 TC2    71.851000  -34.631000   41.877000 T    2907 GCA     0.6000 ****
8720 TC1    65.535000  -29.702000   35.892000 T    2907 GCA    -0.6000 ****
8721 HC1    59.219000  -24.773000   29.908000 H    2907 GCA     0.4000 ****
8722 TC2    76.186000  -28.413000   41.753000 T    2908 GCA     0.6000 ****
8723 TC1    69.266000  -24.350000   35.786000 T    2908 GCA    -0.6000 ****
8724 HC1    62.346000  -20.288000   29.819000 H    2908 GCA     0.4000 ****
8725 TC2    79.667000  -21.680000   41.630000 T    2909 GCA     0.6000 ****
8726 TC1    72.262000  -18.555000   35.680000 T    2909 GCA    -0.6000 ****
8727 HC1    64.857000  -15.430000   29.730000 H    2909 GCA     0.4000 ****
8728 TC2    82.235000  -14.548000   41.506000 T    2910 GCA     0.6000 ****
8729 TC1    74.473000  -12.417000   35.573000 T    2910 GCA    -0.6000 ****
8730 HC1    66.710000  -10.286000   29.640000 H    2910 GCA     0.4000 ****
8731 TC2    83.848000   -7.142000   41.383000 T    2911 GCA     0.6000 ****
8732 TC1    75.860000   -6.042000   35.467000 T    2911 GCA    -0.6000 ****
8733 HC1    67.873000   -4.942000   29.551000 H    2911 GCA     0.4000 ****
8734 TC2    84.478000    0.411000   41.259000 T    2912 GCA     0.6000 ****
8735 TC1    76.403000    0.459000   35.361000 T    2912 GCA    -0.6000 ****
8736 HC1    68.328000    0.507000   29.462000 H    2912 GCA     0.4000 ****
8737 TC2    84.117000    7.983000   41.136000 T    2913 GCA     0.6000 ****
8738 TC1    76.093000    6.976000   35.255000 T    2913 GCA    -0.6000 ****
8739 HC1    68.068000    5.969000   29.373000 H    2913 GCA     0.4000 ****
8740 TC2    82.773000   15.442000   41.012000 T    2914 GCA     0.6000 ****
8741 TC1    74.936000   13.396000   35.148000 T    2914 GCA    -0.6000 ****
8742 HC1    67.098000   11.350000   29.284000 H    2914 GCA     0.4000 ****
8743 TC2    80.470000   22.664000   40.889000 T    2915 GCA     0.6000 ****
8744 TC1    72.953000   19.612000   35.042000 T    2915 GCA    -0.6000 ****
8745 HC1    65.436000   16.560000   29.195000 H    2915 GCA     0.4000 ****
8746 TC2    77.248000   29.524000   40.766000 T    2916 GCA     0.6000 ****
8747 TC1    70.180000   25.517000   34.936000 T    2916 GCA    -0.6000 ****
8748 HC1    63.112000   21.510000   29.106000 H    2916 GCA     0.4000 ****
8749 TC2    73.163000   35.909000   40.642000 T    2917 GCA     0.6000 ****
8750 TC1    66.664000   31.013000   34.830000 T    2917 GCA    -0.6000 ****
8751 HC1    60.165000   26.116000   29.017000 H    2917 GCA     0.4000 ****
8752 TC2    68.286000   41.711000   40.519000 T    2918 GCA     0.6000 ****
8753 TC1    62.467000   36.007000   34.723000 T    2918 GCA    -0.6000 ****
8754 HC1    56.647000   30.302000   28.928000 H    2918 GCA     0.4000 ****
8755 TC2    62.700000   46.834000   40.395000 T    2919 GCA     0.6000 ****
8756 TC1    57.658000   40.416000   34.617000 T    2919 GCA    -0.6000 ****
8757 HC1    52.617000   33.997000   28.839000 H    2919 GCA     0.4000 ****
8758 TC2    56.498000   51.193000   40.272000 T    2920 GCA     0.6000 ****
8759 TC1    52.321000   44.167000   34.511000 T    2920 GCA    -0.6000 ****
8760 HC1    48.143000   37.142000   28.750000 H    2920 GCA     0.4000 ****
8761 TC2    49.787000   54.715000   40.148000 T    2921 GCA     0.6000 ****
8762 TC1    46.544000   47.199000   34.404000 T    2921 GCA    -0.6000 ****
8763 HC1    43.301000   39.683000   28.661000 H    2921 GCA     0.4000 ****
8764 TC2    42.678000   57.344000   40.025000 T    2922 GCA     0.6000 ****
8765 TC1    40.425000   49.462000   34.298000 T    2922 GCA    -0.6000 ****
8766 HC1    38.173000   41.579000   28.572000 H    2922 GCA     0.4000 ****
8767 TC2    35.290000   59.038000   39.901000 T    2923 GCA     0.6000 ****
8768 TC1    34.067000   50.919000   34.192000 T    2923 GCA    -0.6000 ****
8769 HC1    32.843000   42.801000   28.483000 H    2923 GCA     0.4000 ****
8770 TC2    27.746000   59.769000   39.778000 T    2924 GCA     0.6000 ****
8771 TC1    27.573000   51.549000   34.086000 T    2924 GCA    -0.6000 ****
8772 HC1    27.400000   43.328000   28.393000 H    2924 GCA     0.4000 ****
8773 TC2    20.170000   59.527000   39.654000 T    2925 GCA     0.6000 ****
8774 TC1    21.053000   51.340000   33.979000 T    2925 GCA    -0.6000 ****
8775 HC1    21.935000   43.154000   28.304000 H    2925 GCA     0.4000 ****
8776 TC2    12.688000   58.317000   39.531000 T    2926 GCA     0.6000 ****
8777 TC1    14.613000   50.299000   33.873000 T    2926 GCA    -0.6000 ****
8778 HC1    16.537000   42.281000   28.215000 H    2926 GCA     0.4000 ****
8779 TC2     5.422000   56.161000   39.407000 T    2927 GCA     0.6000 ****
8780 TC1     8.358000   48.443000   33.767000 T    2927 GCA    -0.6000 ****
8781 HC1    11.295000   40.726000   28.126000 H    2927 GCA     0.4000 ****
8782 TC2    -1.510000   53.095000   39.284000 T    2928 GCA     0.6000 ****
8783 TC1     2.392000   45.804000   33.661000 T    2928 GCA    -0.6000 ****
8784 HC1     6.294000   38.514000   28.037000 H    2928 GCA     0.4000 ****
8785 TC2    -7.994000   49.170000   39.161000 T    2929 GCA     0.6000 ****
8786 TC1    -3.189000   42.426000   33.554000 T    2929 GCA    -0.6000 ****
8787 HC1     1.616000   35.683000   27.948000 H    2929 GCA     0.4000 ****
8788 TC2   -13.926000   44.452000   39.037000 T    2930 GCA     0.6000 ****
8789 TC1    -8.295000   38.366000   33.448000 T    2930 GCA    -0.6000 ****
8790 HC1    -2.663000   32.279000   27.859000 H    2930 GCA     0.4000 ****
8791 TC2   -19.211000   39.019000   38.914000 T    2931 GCA     0.6000 ****
8792 TC1   -12.843000   33.689000   33.342000 T    2931 GCA    -0.6000 ****
8793 HC1    -6.475000   28.359000   27.770000 H    2931 GCA     0.4000 ****
8794 TC2   -23.763000   32.959000   38.790000 T    2932 GCA     0.6000 ****
8795 TC1   -16.761000   28.473000   33.236000 T    2932 GCA    -0.6000 ****
8796 HC1    -9.759000   23.987000   27.681000 H    2932 GCA     0.4000 ****
8797 TC2   -27.510000   26.371000   38.667000 T    2933 GCA     0.6000 ****
8798 TC1   -19.986000   22.803000   33.129000 T    2933 GCA    -0.6000 ****
8799 HC1   -12.463000   19.234000   27.592000 H    2933 GCA     0.4000 ****
8800 TC2   -30.393000   19.361000   38.543000 T    2934 GCA     0.6000 ****
8801 TC1   -22.468000   16.769000   33.023000 T    2934 GCA    -0.6000 ****
8802 HC1   -14.543000   14.178000   27.503000 H    2934 GCA     0.4000 ****
8803 TC2   -32.367000   12.044000   38.420000 T    2935 GCA     0.6000 ****
8804 TC1   -24.167000   10.471000   32.917000 T    2935 GCA    -0.6000 ****
8805 HC1   -15.967000    8.899000   27.414000 H    2935 GCA     0.4000 ****
8806 TC2   -33.402000    4.535000   38.296000 T    2936 GCA     0.6000 ****
8807 TC1   -25.058000    4.009000   32.810000 T    2936 GCA    -0.6000 ****
8808 HC1   -16.713000    3.482000   27.325000 H    2936 GCA     0.4000 ****
8809 TC2   -33.482000   -3.044000   38.173000 T    2937 GCA     0.6000 ****
8810 TC1   -25.127000   -2.515000   32.704000 T    2937 GCA    -0.6000 ****
8811 HC1   -16.771000   -1.986000   27.236000 H    2937 GCA     0.4000 ****
8812 TC2   -32.607000  -10.572000   38.049000 T    2938 GCA     0.6000 ****
8813 TC1   -24.374000   -8.995000   32.598000 T    2938 GCA    -0.6000 ****
8814 HC1   -16.140000   -7.417000   27.147000 H    2938 GCA     0.4000 ****
8815 TC2   -30.793000  -17.931000   37.926000 T    2939 GCA     0.6000 ****
8816 TC1   -22.812000  -15.328000   32.492000 T    2939 GCA    -0.6000 ****
8817 HC1   -14.831000  -12.726000   27.057000 H    2939 GCA     0.4000 ****
8818 TC2   -28.069000  -25.004000   37.802000 T    2940 GCA     0.6000 ****
8819 TC1   -20.468000  -21.416000   32.385000 T    2940 GCA    -0.6000 ****
8820 HC1   -12.866000  -17.828000   26.968000 H    2940 GCA     0.4000 ****
8821 TC2   -24.480000  -31.679000   37.679000 T    2941 GCA     0.6000 ****
8822 TC1   -17.378000  -27.162000   32.279000 T    2941 GCA    -0.6000 ****
8823 HC1   -10.277000  -22.644000   26.879000 H    2941 GCA     0.4000 ****
8824 TC2   -20.083000  -37.853000   37.555000 T    2942 GCA     0.6000 ****
8825 TC1   -13.594000  -32.475000   32.173000 T    2942 GCA    -0.6000 ****
8826 HC1    -7.105000  -27.098000   26.790000 H    2942 GCA     0.4000 ****
8827 TC2   -14.949000  -43.428000   37.432000 T    2943 GCA     0.6000 ****
8828 TC1    -9.175000  -37.274000   32.067000 T    2943 GCA    -0.6000 ****
8829 HC1    -3.401000  -31.120000   26.701000 H    2943 GCA     0.4000 ****
8830 TC2    -9.159000  -48.318000   37.309000 T    2944 GCA     0.6000 ****
8831 TC1    -4.191000  -41.483000   31.960000 T    2944 GCA    -0.6000 ****
8832 HC1     0.776000  -34.648000   26.612000 H    2944 GCA     0.4000 ****
8833 TC2    -2.804000  -52.448000   37.185000 T    2945 GCA     0.6000 ****
8834 TC1     1.279000  -45.038000   31.854000 T    2945 GCA    -0.6000 ****
8835 HC1     5.361000  -37.627000   26.523000 H    2945 GCA     0.4000 ****
8836 TC2     4.016000  -55.754000   37.062000 T    2946 GCA     0.6000 ****
8837 TC1     7.149000  -47.883000   31.748000 T    2946 GCA    -0.6000 ****
8838 HC1    10.281000  -40.012000   26.434000 H    2946 GCA     0.4000 ****
8839 TC2    11.195000  -58.186000   36.938000 T    2947 GCA     0.6000 ****
8840 TC1    13.327000  -49.976000   31.642000 T    2947 GCA    -0.6000 ****
8841 HC1    15.460000  -41.767000   26.345000 H    2947 GCA     0.4000 ****
8842 TC2    18.620000  -59.707000   36.815000 T    2948 GCA     0.6000 ****
8843 TC1    19.718000  -51.285000   31.535000 T    2948 GCA    -0.6000 ****
8844 HC1    20.816000  -42.864000   26.256000 H    2948 GCA     0.4000 ****
8845 TC2    26.176000  -60.294000   36.691000 T    2949 GCA     0.6000 ****
8846 TC1    26.222000  -51.791000   31.429000 T    2949 GCA    -0.6000 ****
8847 HC1    26.268000  -43.288000   26.167000 H    2949 GCA     0.4000 ****
8848 TC2    33.747000  -59.941000   36.568000 T    2950 GCA     0.6000 ****
8849 TC1    32.738000  -51.487000   31.323000 T    2950 GCA    -0.6000 ****
8850 HC1    31.729000  -43.033000   26.078000 H    2950 GCA     0.4000 ****
8851 TC2    41.215000  -58.653000   36.444000 T    2951 GCA     0.6000 ****
8852 TC1    39.166000  -50.379000   31.216000 T    2951 GCA    -0.6000 ****
8853 HC1    37.117000  -42.104000   25.989000 H    2951 GCA     0.4000 ****
8854 TC2    48.468000  -56.452000   36.321000 T    2952 GCA     0.6000 ****
8855 TC1    45.409000  -48.484000   31.110000 T    2952 GCA    -0.6000 ****
8856 HC1    42.349000  -40.516000   25.900000 H    2952 GCA     0.4000 ****
8857 TC2    55.392000  -53.372000   36.197000 T    2953 GCA     0.6000 ****
8858 TC1    51.369000  -45.833000   31.004000 T    2953 GCA    -0.6000 ****
8859 HC1    47.345000  -38.294000   25.810000 H    2953 GCA     0.4000 ****
8860 TC2    61.885000  -49.461000   36.074000 T    2954 GCA     0.6000 ****
8861 TC1    56.957000  -42.467000   30.898000 T    2954 GCA    -0.6000 ****
8862 HC1    52.029000  -35.472000   25.721000 H    2954 GCA     0.4000 ****
8863 TC2    67.846000  -44.781000   35.950000 T    2955 GCA     0.6000 ****
8864 TC1    62.087000  -38.438000   30.791000 T    2955 GCA    -0.6000 ****
8865 HC1    56.329000  -32.096000   25.632000 H    2955 GCA     0.4000 ****
8866 TC2    73.185000  -39.402000   35.827000 T    2956 GCA     0.6000 ****
8867 TC1    66.683000  -33.809000   30.685000 T    2956 GCA    -0.6000 ****
8868 HC1    60.181000  -28.216000   25.543000 H    2956 GCA     0.4000 ****
8869 TC2    77.824000  -33.409000   35.704000 T    2957 GCA     0.6000 ****
8870 TC1    70.676000  -28.650000   30.579000 T    2957 GCA    -0.6000 ****
8871 HC1    63.527000  -23.892000   25.454000 H    2957 GCA     0.4000 ****
8872 TC2    81.691000  -26.891000   35.580000 T    2958 GCA     0.6000 ****
8873 TC1    74.004000  -23.040000   30.473000 T    2958 GCA    -0.6000 ****
8874 HC1    66.318000  -19.190000   25.365000 H    2958 GCA     0.4000 ****
8875 TC2    84.731000  -19.948000   35.457000 T    2959 GCA     0.6000 ****
8876 TC1    76.620000  -17.065000   30.366000 T    2959 GCA    -0.6000 ****
8877 HC1    68.510000  -14.181000   25.276000 H    2959 GCA     0.4000 ****
8878 TC2    86.897000  -12.686000   35.333000 T    2960 GCA     0.6000 ****
8879 TC1    78.485000  -10.814000   30.260000 T    2960 GCA    -0.6000 ****
8880 HC1    70.073000   -8.942000   25.187000 H    2960 GCA     0.4000 ****
8881 TC2    88.159000   -5.213000   35.210000 T    2961 GCA     0.6000 ****
8882 TC1    79.571000   -4.381000   30.154000 T    2961 GCA    -0.6000 ****
8883 HC1    70.983000   -3.550000   25.098000 H    2961 GCA     0.4000 ****
8884 TC2    88.498000    2.359000   35.086000 T    2962 GCA     0.6000 ****
8885 TC1    79.863000    2.135000   30.048000 T    2962 GCA    -0.6000 ****
8886 HC1    71.228000    1.912000   25.009000 H    2962 GCA     0.4000 ****
8887 TC2    87.911000    9.915000   34.963000 T    2963 GCA     0.6000 ****
8888 TC1    79.358000    8.639000   29.941000 T    2963 GCA    -0.6000 ****
8889 HC1    70.805000    7.363000   24.920000 H    2963 GCA     0.4000 ****
8890 TC2    86.408000   17.343000   34.839000 T    2964 GCA     0.6000 ****
8891 TC1    78.064000   15.032000   29.835000 T    2964 GCA    -0.6000 ****
8892 HC1    69.720000   12.722000   24.831000 H    2964 GCA     0.4000 ****
8893 TC2    84.011000   24.533000   34.716000 T    2965 GCA     0.6000 ****
8894 TC1    76.001000   21.220000   29.729000 T    2965 GCA    -0.6000 ****
8895 HC1    67.991000   17.908000   24.742000 H    2965 GCA     0.4000 ****
8896 TC2    80.758000   31.378000   34.592000 T    2966 GCA     0.6000 ****
8897 TC1    73.201000   27.112000   29.622000 T    2966 GCA    -0.6000 ****
8898 HC1    65.644000   22.847000   24.653000 H    2966 GCA     0.4000 ****
8899 TC2    76.698000   37.777000   34.469000 T    2967 GCA     0.6000 ****
8900 TC1    69.706000   32.620000   29.516000 T    2967 GCA    -0.6000 ****
8901 HC1    62.715000   27.463000   24.564000 H    2967 GCA     0.4000 ****
8902 TC2    71.891000   43.636000   34.345000 T    2968 GCA     0.6000 ****
8903 TC1    65.569000   37.663000   29.410000 T    2968 GCA    -0.6000 ****
8904 HC1    59.247000   31.690000   24.474000 H    2968 GCA     0.4000 ****
8905 TC2    66.410000   48.870000   34.222000 T    2969 GCA     0.6000 ****
8906 TC1    60.851000   42.168000   29.304000 T    2969 GCA    -0.6000 ****
8907 HC1    55.293000   35.466000   24.385000 H    2969 GCA     0.4000 ****
8908 TC2    60.335000   53.401000   34.099000 T    2970 GCA     0.6000 ****
8909 TC1    55.623000   46.068000   29.197000 T    2970 GCA    -0.6000 ****
8910 HC1    50.911000   38.735000   24.296000 H    2970 GCA     0.4000 ****
8911 TC2    53.757000   57.165000   33.975000 T    2971 GCA     0.6000 ****
8912 TC1    49.961000   49.308000   29.091000 T    2971 GCA    -0.6000 ****
8913 HC1    46.165000   41.450000   24.207000 H    2971 GCA     0.4000 ****
8914 TC2    46.772000   60.107000   33.852000 T    2972 GCA     0.6000 ****
8915 TC1    43.949000   51.839000   28.985000 T    2972 GCA    -0.6000 ****
8916 HC1    41.126000   43.572000   24.118000 H    2972 GCA     0.4000 ****
8917 TC2    39.484000   62.184000   33.728000 T    2973 GCA     0.6000 ****
8918 TC1    37.676000   53.628000   28.879000 T    2973 GCA    -0.6000 ****
8919 HC1    35.869000   45.071000   24.029000 H    2973 GCA     0.4000 ****
8920 TC2    31.999000   63.368000   33.605000 T    2974 GCA     0.6000 ****
8921 TC1    31.233000   54.647000   28.772000 T    2974 GCA    -0.6000 ****
8922 HC1    30.468000   45.925000   23.940000 H    2974 GCA     0.4000 ****
8923 TC2    24.425000   63.642000   33.481000 T    2975 GCA     0.6000 ****
8924 TC1    24.715000   54.883000   28.666000 T    2975 GCA    -0.6000 ****
8925 HC1    25.005000   46.123000   23.851000 H    2975 GCA     0.4000 ****
8926 TC2    16.873000   63.004000   33.358000 T    2976 GCA     0.6000 ****
8927 TC1    18.215000   54.333000   28.560000 T    2976 GCA    -0.6000 ****
8928 HC1    19.557000   45.662000   23.762000 H    2976 GCA     0.4000 ****
8929 TC2     9.453000   61.462000   33.234000 T    2977 GCA     0.6000 ****
8930 TC1    11.828000   53.006000   28.454000 T    2977 GCA    -0.6000 ****
8931 HC1    14.204000   44.550000   23.673000 H    2977 GCA     0.4000 ****
8932 TC2     2.272000   59.042000   33.111000 T    2978 GCA     0.6000 ****
8933 TC1     5.647000   50.923000   28.347000 T    2978 GCA    -0.6000 ****
8934 HC1     9.023000   42.804000   23.584000 H    2978 GCA     0.4000 ****
8935 TC2    -4.568000   55.778000   32.987000 T    2979 GCA     0.6000 ****
8936 TC1    -0.240000   48.114000   28.241000 T    2979 GCA    -0.6000 ****
8937 HC1     4.088000   40.449000   23.495000 H    2979 GCA     0.4000 ****
8938 TC2   -10.967000   51.718000   32.864000 T    2980 GCA     0.6000 ****
8939 TC1    -5.748000   44.620000   28.135000 T    2980 GCA    -0.6000 ****
8940 HC1    -0.528000   37.521000   23.406000 H    2980 GCA     0.4000 ****
8941 TC2   -16.835000   46.922000   32.740000 T    2981 GCA     0.6000 ****
8942 TC1   -10.799000   40.492000   28.028000 T    2981 GCA    -0.6000 ****
8943 HC1    -4.762000   34.061000   23.317000 H    2981 GCA     0.4000 ****
8944 TC2   -22.088000   41.460000   32.617000 T    2982 GCA     0.6000 ****
8945 TC1   -15.320000   35.790000   27.922000 T    2982 GCA    -0.6000 ****
8946 HC1    -8.551000   30.120000   23.227000 H    2982 GCA     0.4000 ****
8947 TC2   -26.651000   35.409000   32.494000 T    2983 GCA     0.6000 ****
8948 TC1   -19.247000   30.582000   27.816000 T    2983 GCA    -0.6000 ****
8949 HC1   -11.843000   25.755000   23.138000 H    2983 GCA     0.4000 ****
8950 TC2   -30.460000   28.857000   32.370000 T    2984 GCA     0.6000 ****
8951 TC1   -22.526000   24.943000   27.710000 T    2984 GCA    -0.6000 ****
8952 HC1   -14.591000   21.028000   23.049000 H    2984 GCA     0.4000 ****
8953 TC2   -33.462000   21.899000   32.247000 T    2985 GCA     0.6000 ****
8954 TC1   -25.109000   18.953000   27.603000 T    2985 GCA    -0.6000 ****
8955 HC1   -16.756000   16.008000   22.960000 H    2985 GCA     0.4000 ****
8956 TC2   -35.613000   14.632000   32.123000 T    2986 GCA     0.6000 ****
8957 TC1   -26.961000   12.699000   27.497000 T    2986 GCA    -0.6000 ****
8958 HC1   -18.309000   10.766000   22.871000 H    2986 GCA     0.4000 ****
8959 TC2   -36.886000    7.161000   32.000000 T    2987 GCA     0.6000 ****
8960 TC1   -28.056000    6.269000   27.391000 T    2987 GCA    -0.6000 ****
8961 HC1   -19.227000    5.376000   22.782000 H    2987 GCA     0.4000 ****
8962 TC2   -37.262000   -0.408000   31.876000 T    2988 GCA     0.6000 ****
8963 TC1   -28.380000   -0.246000   27.285000 T    2988 GCA    -0.6000 ****
8964 HC1   -19.498000   -0.084000   22.693000 H    2988 GCA     0.4000 ****
8965 TC2   -36.738000   -7.968000   31.753000 T    2989 GCA     0.6000 ****
8966 TC1   -27.929000   -6.753000   27.178000 T    2989 GCA    -0.6000 ****
8967 HC1   -19.120000   -5.538000   22.604000 H    2989 GCA     0.4000 ****
8968 TC2   -35.321000  -15.412000   31.629000 T    2990 GCA     0.6000 ****
8969 TC1   -26.710000  -13.161000   27.072000 T    2990 GCA    -0.6000 ****
8970 HC1   -18.098000  -10.909000   22.515000 H    2990 GCA     0.4000 ****
8971 TC2   -33.033000  -22.637000   31.506000 T    2991 GCA     0.6000 ****
8972 TC1   -24.740000  -19.379000   26.966000 T    2991 GCA    -0.6000 ****
8973 HC1   -16.447000  -16.121000   22.426000 H    2991 GCA     0.4000 ****
8974 TC2   -29.906000  -29.540000   31.382000 T    2992 GCA     0.6000 ****
8975 TC1   -22.049000  -25.321000   26.860000 T    2992 GCA    -0.6000 ****
8976 HC1   -14.191000  -21.101000   22.337000 H    2992 GCA     0.4000 ****
8977 TC2   -25.985000  -36.025000   31.259000 T    2993 GCA     0.6000 ****
8978 TC1   -18.674000  -30.902000   26.753000 T    2993 GCA    -0.6000 ****
8979 HC1   -11.363000  -25.780000   22.248000 H    2993 GCA     0.4000 ****
8980 TC2   -21.326000  -42.002000   31.135000 T    2994 GCA     0.6000 ****
8981 TC1   -14.664000  -36.047000   26.647000 T    2994 GCA    -0.6000 ****
8982 HC1    -8.002000  -30.091000   22.159000 H    2994 GCA     0.4000 ****
8983 TC2   -15.995000  -47.388000   31.012000 T    2995 GCA     0.6000 ****
8984 TC1   -10.075000  -40.682000   26.541000 T    2995 GCA    -0.6000 ****
8985 HC1    -4.155000  -33.977000   22.070000 H    2995 GCA     0.4000 ****
8986 TC2   -10.066000  -52.108000   30.889000 T    2996 GCA     0.6000 ****
8987 TC1    -4.972000  -44.745000   26.435000 T    2996 GCA    -0.6000 ****
8988 HC1     0.122000  -37.382000   21.981000 H    2996 GCA     0.4000 ****
8989 TC2    -3.622000  -56.097000   30.765000 T    2997 GCA     0.6000 ****
8990 TC1     0.574000  -48.178000   26.328000 T    2997 GCA    -0.6000 ****
8991 HC1     4.770000  -40.259000   21.891000 H    2997 GCA     0.4000 ****
8992 TC2     3.245000  -59.300000   30.642000 T    2998 GCA     0.6000 ****
8993 TC1     6.485000  -50.935000   26.222000 T    2998 GCA    -0.6000 ****
8994 HC1     9.725000  -42.571000   21.802000 H    2998 GCA     0.4000 ****
8995 TC2    10.442000  -61.675000   30.518000 T    2999 GCA     0.6000 ****
8996 TC1    12.679000  -52.979000   26.116000 T    2999 GCA    -0.6000 ****
8997 HC1    14.917000  -44.283000   21.713000 H    2999 GCA     0.4000 ****
8998 TC2    17.868000  -63.188000   30.395000 T    3000 GCA     0.6000 ****
8999 TC1    19.071000  -54.281000   26.009000 T    3000 GCA    -0.6000 ****
9000 HC1    20.274000  -45.375000   21.624000 H    3000 GCA     0.4000 ****
9001 TC2    25.419000  -63.819000   30.271000 T    3001 GCA     0.6000 ****
9002 TC1    25.571000  -54.825000   25.903000 T    3001 GCA    -0.6000 ****
9003 HC1    25.722000  -45.831000   21.535000 H    3001 GCA     0.4000 ****
9004 TC2    32.993000  -63.562000   30.148000 T    3002 GCA     0.6000 ****
9005 TC1    32.089000  -54.603000   25.797000 T    3002 GCA    -0.6000 ****
9006 HC1    31.186000  -45.645000   21.446000 H    3002 GCA     0.4000 ****
9007 TC2    40.485000  -62.420000   30.024000 T    3003 GCA     0.6000 ****
9008 TC1    38.537000  -53.620000   25.691000 T    3003 GCA    -0.6000 ****
9009 HC1    36.590000  -44.821000   21.357000 H    3003 GCA     0.4000 ****
9010 TC2    47.791000  -60.409000   29.901000 T    3004 GCA     0.6000 ****
9011 TC1    44.826000  -51.890000   25.584000 T    3004 GCA    -0.6000 ****
9012 HC1    41.861000  -43.370000   21.268000 H    3004 GCA     0.4000 ****
9013 TC2    54.813000  -57.558000   29.777000 T    3005 GCA     0.6000 ****
9014 TC1    50.870000  -49.436000   25.478000 T    3005 GCA    -0.6000 ****
9015 HC1    46.927000  -41.314000   21.179000 H    3005 GCA     0.4000 ****
9016 TC2    61.453000  -53.907000   29.654000 T    3006 GCA     0.6000 ****
9017 TC1    56.585000  -46.294000   25.372000 T    3006 GCA    -0.6000 ****
9018 HC1    51.718000  -38.680000   21.090000 H    3006 GCA     0.4000 ****
9019 TC2    67.623000  -49.507000   29.530000 T    3007 GCA     0.6000 ****
9020 TC1    61.896000  -42.506000   25.266000 T    3007 GCA    -0.6000 ****
9021 HC1    56.168000  -35.505000   21.001000 H    3007 GCA     0.4000 ****
9022 TC2    73.237000  -44.417000   29.407000 T    3008 GCA     0.6000 ****
9023 TC1    66.728000  -38.125000   25.159000 T    3008 GCA    -0.6000 ****
9024 HC1    60.219000  -31.834000   20.912000 H    3008 GCA     0.4000 ****
9025 TC2    78.221000  -38.709000   29.283000 T    3009 GCA     0.6000 ****
9026 TC1    71.018000  -33.212000   25.053000 T    3009 GCA    -0.6000 ****
9027 HC1    63.814000  -27.715000   20.823000 H    3009 GCA     0.4000 ****
9028 TC2    82.507000  -32.459000   29.160000 T    3010 GCA     0.6000 ****
9029 TC1    74.707000  -27.833000   24.947000 T    3010 GCA    -0.6000 ****
9030 HC1    66.906000  -23.207000   20.734000 H    3010 GCA     0.4000 ****
9031 TC2    86.038000  -25.754000   29.037000 T    3011 GCA     0.6000 ****
9032 TC1    77.746000  -22.062000   24.841000 T    3011 GCA    -0.6000 ****
9033 HC1    69.453000  -18.369000   20.644000 H    3011 GCA     0.4000 ****
9034 TC2    88.766000  -18.684000   28.913000 T    3012 GCA     0.6000 ****
9035 TC1    80.094000  -15.976000   24.734000 T    3012 GCA    -0.6000 ****
9036 HC1    71.421000  -13.269000   20.555000 H    3012 GCA     0.4000 ****
9037 TC2    90.655000  -11.345000   28.790000 T    3013 GCA     0.6000 ****
9038 TC1    81.720000   -9.660000   24.628000 T    3013 GCA    -0.6000 ****
9039 HC1    72.784000   -7.975000   20.466000 H    3013 GCA     0.4000 ****
9040 TC2    91.681000   -3.837000   28.666000 T    3014 GCA     0.6000 ****
9041 TC1    82.603000   -3.197000   24.522000 T    3014 GCA    -0.6000 ****
9042 HC1    73.525000   -2.558000   20.377000 H    3014 GCA     0.4000 ****
9043 TC2    91.830000    3.740000   28.543000 T    3015 GCA     0.6000 ****
9044 TC1    82.731000    3.324000   24.415000 T    3015 GCA    -0.6000 ****
9045 HC1    73.632000    2.908000   20.288000 H    3015 GCA     0.4000 ****
9046 TC2    91.102000   11.282000   28.419000 T    3016 GCA     0.6000 ****
9047 TC1    82.104000    9.816000   24.309000 T    3016 GCA    -0.6000 ****
9048 HC1    73.107000    8.349000   20.199000 H    3016 GCA     0.4000 ****
9049 TC2    89.506000   18.691000   28.296000 T    3017 GCA     0.6000 ****
9050 TC1    80.731000   16.192000   24.203000 T    3017 GCA    -0.6000 ****
9051 HC1    71.956000   13.694000   20.110000 H    3017 GCA     0.4000 ****
9052 TC2    87.066000   25.865000   28.172000 T    3018 GCA     0.6000 ****
9053 TC1    78.630000   22.367000   24.097000 T    3018 GCA    -0.6000 ****
9054 HC1    70.195000   18.869000   20.021000 H    3018 GCA     0.4000 ****
9055 TC2    83.813000   32.709000   28.049000 T    3019 GCA     0.6000 ****
9056 TC1    75.831000   28.258000   23.990000 T    3019 GCA    -0.6000 ****
9057 HC1    67.848000   23.807000   19.932000 H    3019 GCA     0.4000 ****
9058 TC2    79.793000   39.133000   27.925000 T    3020 GCA     0.6000 ****
9059 TC1    72.371000   33.787000   23.884000 T    3020 GCA    -0.6000 ****
9060 HC1    64.948000   28.441000   19.843000 H    3020 GCA     0.4000 ****
9061 TC2    75.059000   45.050000   27.802000 T    3021 GCA     0.6000 ****
9062 TC1    68.296000   38.880000   23.778000 T    3021 GCA    -0.6000 ****
9063 HC1    61.533000   32.710000   19.754000 H    3021 GCA     0.4000 ****
9064 TC2    69.676000   50.383000   27.678000 T    3022 GCA     0.6000 ****
9065 TC1    63.663000   43.470000   23.672000 T    3022 GCA    -0.6000 ****
9066 HC1    57.649000   36.558000   19.665000 H    3022 GCA     0.4000 ****
9067 TC2    63.715000   55.062000   27.555000 T    3023 GCA     0.6000 ****
9068 TC1    58.532000   47.497000   23.565000 T    3023 GCA    -0.6000 ****
9069 HC1    53.349000   39.933000   19.576000 H    3023 GCA     0.4000 ****
9070 TC2    57.255000   59.024000   27.432000 T    3024 GCA     0.6000 ****
9071 TC1    52.972000   50.907000   23.459000 T    3024 GCA    -0.6000 ****
9072 HC1    48.689000   42.791000   19.487000 H    3024 GCA     0.4000 ****
9073 TC2    50.383000   62.218000   27.308000 T    3025 GCA     0.6000 ****
9074 TC1    47.057000   53.656000   23.353000 T    3025 GCA    -0.6000 ****
9075 HC1    43.731000   45.095000   19.398000 H    3025 GCA     0.4000 ****
9076 TC2    43.190000   64.602000   27.185000 T    3026 GCA     0.6000 ****
9077 TC1    40.866000   55.709000   23.247000 T    3026 GCA    -0.6000 ****
9078 HC1    38.542000   46.815000   19.308000 H    3026 GCA     0.4000 ****
9079 TC2    35.771000   66.145000   27.061000 T    3027 GCA     0.6000 ****
9080 TC1    34.481000   57.037000   23.140000 T    3027 GCA    -0.6000 ****
9081 HC1    33.190000   47.929000   19.219000 H    3027 GCA     0.4000 ****
9082 TC2    28.224000   66.829000   26.938000 T    3028 GCA     0.6000 ****
9083 TC1    27.985000   57.625000   23.034000 T    3028 GCA    -0.6000 ****
9084 HC1    27.745000   48.422000   19.130000 H    3028 GCA     0.4000 ****
9085 TC2    20.649000   66.644000   26.814000 T    3029 GCA     0.6000 ****
9086 TC1    21.465000   57.466000   22.928000 T    3029 GCA    -0.6000 ****
9087 HC1    22.280000   48.288000   19.041000 H    3029 GCA     0.4000 ****
9088 TC2    13.144000   65.593000   26.691000 T    3030 GCA     0.6000 ****
9089 TC1    15.005000   56.562000   22.821000 T    3030 GCA    -0.6000 ****
9090 HC1    16.866000   47.530000   18.952000 H    3030 GCA     0.4000 ****
9091 TC2     5.809000   63.692000   26.567000 T    3031 GCA     0.6000 ****
9092 TC1     8.692000   54.925000   22.715000 T    3031 GCA    -0.6000 ****
9093 HC1    11.574000   46.159000   18.863000 H    3031 GCA     0.4000 ****
9094 TC2    -1.261000   60.965000   26.444000 T    3032 GCA     0.6000 ****
9095 TC1     2.606000   52.578000   22.609000 T    3032 GCA    -0.6000 ****
9096 HC1     6.474000   44.191000   18.774000 H    3032 GCA     0.4000 ****
9097 TC2    -7.974000   57.449000   26.320000 T    3033 GCA     0.6000 ****
9098 TC1    -3.171000   49.552000   22.503000 T    3033 GCA    -0.6000 ****
9099 HC1     1.631000   41.655000   18.685000 H    3033 GCA     0.4000 ****
9100 TC2   -14.242000   53.190000   26.197000 T    3034 GCA     0.6000 ****
9101 TC1    -8.566000   45.886000   22.396000 T    3034 GCA    -0.6000 ****
9102 HC1    -2.890000   38.582000   18.596000 H    3034 GCA     0.4000 ****
9103 TC2   -19.983000   48.245000   26.073000 T    3035 GCA     0.6000 ****
9104 TC1   -13.508000   41.630000   22.290000 T    3035 GCA    -0.6000 ****
9105 HC1    -7.033000   35.015000   18.507000 H    3035 GCA     0.4000 ****
9106 TC2   -25.124000   42.678000   25.950000 T    3036 GCA     0.6000 ****
9107 TC1   -17.933000   36.838000   22.184000 T    3036 GCA    -0.6000 ****
9108 HC1   -10.742000   30.999000   18.418000 H    3036 GCA     0.4000 ****
9109 TC2   -29.599000   36.562000   25.827000 T    3037 GCA     0.6000 ****
9110 TC1   -21.784000   31.575000   22.078000 T    3037 GCA    -0.6000 ****
9111 HC1   -13.970000   26.587000   18.329000 H    3037 GCA     0.4000 ****
9112 TC2   -33.349000   29.978000   25.703000 T    3038 GCA     0.6000 ****
9113 TC1   -25.012000   25.907000   21.971000 T    3038 GCA    -0.6000 ****
9114 HC1   -16.675000   21.837000   18.240000 H    3038 GCA     0.4000 ****
9115 TC2   -36.327000   23.010000   25.580000 T    3039 GCA     0.6000 ****
9116 TC1   -27.575000   19.910000   21.865000 T    3039 GCA    -0.6000 ****
9117 HC1   -18.823000   16.810000   18.151000 H    3039 GCA     0.4000 ****
9118 TC2   -38.494000   15.749000   25.456000 T    3040 GCA     0.6000 ****
9119 TC1   -29.440000   13.660000   21.759000 T    3040 GCA    -0.6000 ****
9120 HC1   -20.387000   11.571000   18.061000 H    3040 GCA     0.4000 ****
9121 TC2   -39.823000    8.288000   25.333000 T    3041 GCA     0.6000 ****
9122 TC1   -30.585000    7.239000   21.653000 T    3041 GCA    -0.6000 ****
9123 HC1   -21.346000    6.190000   17.972000 H    3041 GCA     0.4000 ****
9124 TC2   -40.299000    0.726000   25.209000 T    3042 GCA     0.6000 ****
9125 TC1   -30.994000    0.730000   21.546000 T    3042 GCA    -0.6000 ****
9126 HC1   -21.689000    0.734000   17.883000 H    3042 GCA     0.4000 ****
9127 TC2   -39.914000   -6.842000   25.086000 T    3043 GCA     0.6000 ****
9128 TC1   -30.663000   -5.784000   21.440000 T    3043 GCA    -0.6000 ****
9129 HC1   -21.411000   -4.726000   17.794000 H    3043 GCA     0.4000 ****
9130 TC2   -38.676000  -14.318000   24.962000 T    3044 GCA     0.6000 ****
9131 TC1   -29.597000  -12.218000   21.334000 T    3044 GCA    -0.6000 ****
9132 HC1   -20.518000  -10.119000   17.705000 H    3044 GCA     0.4000 ****
9133 TC2   -36.599000  -21.605000   24.839000 T    3045 GCA     0.6000 ****
9134 TC1   -27.810000  -18.491000   21.227000 T    3045 GCA    -0.6000 ****
9135 HC1   -19.020000  -15.377000   17.616000 H    3045 GCA     0.4000 ****
9136 TC2   -33.712000  -28.611000   24.715000 T    3046 GCA     0.6000 ****
9137 TC1   -25.325000  -24.521000   21.121000 T    3046 GCA    -0.6000 ****
9138 HC1   -16.937000  -20.431000   17.527000 H    3046 GCA     0.4000 ****
9139 TC2   -30.053000  -35.247000   24.592000 T    3047 GCA     0.6000 ****
9140 TC1   -22.175000  -30.232000   21.015000 T    3047 GCA    -0.6000 ****
9141 HC1   -14.297000  -25.218000   17.438000 H    3047 GCA     0.4000 ****
9142 TC2   -25.668000  -41.426000   24.468000 T    3048 GCA     0.6000 ****
9143 TC1   -18.401000  -35.551000   20.909000 T    3048 GCA    -0.6000 ****
9144 HC1   -11.133000  -29.676000   17.349000 H    3048 GCA     0.4000 ****
9145 TC2   -20.613000  -47.072000   24.345000 T    3049 GCA     0.6000 ****
9146 TC1   -14.050000  -40.410000   20.802000 T    3049 GCA    -0.6000 ****
9147 HC1    -7.487000  -33.749000   17.260000 H    3049 GCA     0.4000 ****
9148 TC2   -14.955000  -52.112000   24.222000 T    3050 GCA     0.6000 ****
9149 TC1    -9.180000  -44.748000   20.696000 T    3050 GCA    -0.6000 ****
9150 HC1    -3.405000  -37.385000   17.171000 H    3050 GCA     0.4000 ****
9151 TC2    -8.765000  -56.482000   24.098000 T    3051 GCA     0.6000 ****
9152 TC1    -3.852000  -48.510000   20.590000 T    3051 GCA    -0.6000 ****
9153 HC1     1.061000  -40.538000   17.082000 H    3051 GCA     0.4000 ****
9154 TC2    -2.122000  -60.128000   23.975000 T    3052 GCA     0.6000 ****
9155 TC1     1.865000  -51.648000   20.484000 T    3052 GCA    -0.6000 ****
9156 HC1     5.853000  -43.168000   16.993000 H    3052 GCA     0.4000 ****
9157 TC2     4.889000  -63.004000   23.851000 T    3053 GCA     0.6000 ****
9158 TC1     7.899000  -54.123000   20.377000 T    3053 GCA    -0.6000 ****
9159 HC1    10.910000  -45.242000   16.904000 H    3053 GCA     0.4000 ****
9160 TC2    12.178000  -65.073000   23.728000 T    3054 GCA     0.6000 ****
9161 TC1    14.174000  -55.904000   20.271000 T    3054 GCA    -0.6000 ****
9162 HC1    16.169000  -46.735000   16.815000 H    3054 GCA     0.4000 ****
9163 TC2    19.654000  -66.311000   23.604000 T    3055 GCA     0.6000 ****
9164 TC1    20.608000  -56.969000   20.165000 T    3055 GCA    -0.6000 ****
9165 HC1    21.562000  -47.628000   16.725000 H    3055 GCA     0.4000 ****
9166 TC2    27.221000  -66.701000   23.481000 T    3056 GCA     0.6000 ****
9167 TC1    27.121000  -57.305000   20.059000 T    3056 GCA    -0.6000 ****
9168 HC1    27.022000  -47.910000   16.636000 H    3056 GCA     0.4000 ****
9169 TC2    34.784000  -66.240000   23.357000 T    3057 GCA     0.6000 ****
9170 TC1    33.631000  -56.908000   19.952000 T    3057 GCA    -0.6000 ****
9171 HC1    32.478000  -47.577000   16.547000 H    3057 GCA     0.4000 ****
9172 TC2    42.248000  -64.934000   23.234000 T    3058 GCA     0.6000 ****
9173 TC1    40.056000  -55.784000   19.846000 T    3058 GCA    -0.6000 ****
9174 HC1    37.863000  -46.635000   16.458000 H    3058 GCA     0.4000 ****
9175 TC2    49.519000  -62.800000   23.110000 T    3059 GCA     0.6000 ****
9176 TC1    46.314000  -53.948000   19.740000 T    3059 GCA    -0.6000 ****
9177 HC1    43.108000  -45.095000   16.369000 H    3059 GCA     0.4000 ****
9178 TC2    56.505000  -59.865000   22.987000 T    3060 GCA     0.6000 ****
9179 TC1    52.327000  -51.422000   19.634000 T    3060 GCA    -0.6000 ****
9180 HC1    48.148000  -42.978000   16.280000 H    3060 GCA     0.4000 ****
9181 TC2    63.119000  -56.167000   22.863000 T    3061 GCA     0.6000 ****
9182 TC1    58.019000  -48.239000   19.527000 T    3061 GCA    -0.6000 ****
9183 HC1    52.919000  -40.310000   16.191000 H    3061 GCA     0.4000 ****
9184 TC2    69.278000  -51.753000   22.740000 T    3062 GCA     0.6000 ****
9185 TC1    63.320000  -44.440000   19.421000 T    3062 GCA    -0.6000 ****
9186 HC1    57.362000  -37.126000   16.102000 H    3062 GCA     0.4000 ****
9187 TC2    74.905000  -46.679000   22.617000 T    3063 GCA     0.6000 ****
9188 TC1    68.163000  -40.072000   19.315000 T    3063 GCA    -0.6000 ****
9189 HC1    61.422000  -33.465000   16.013000 H    3063 GCA     0.4000 ****
9190 TC2    79.930000  -41.007000   22.493000 T    3064 GCA     0.6000 ****
9191 TC1    72.489000  -35.190000   19.208000 T    3064 GCA    -0.6000 ****
9192 HC1    65.047000  -29.374000   15.924000 H    3064 GCA     0.4000 ****
9193 TC2    84.291000  -34.811000   22.370000 T    3065 GCA     0.6000 ****
9194 TC1    76.242000  -29.857000   19.102000 T    3065 GCA    -0.6000 ****
9195 HC1    68.193000  -24.903000   15.835000 H    3065 GCA     0.4000 ****
9196 TC2    87.933000  -28.166000   22.246000 T    3066 GCA     0.6000 ****
9197 TC1    79.377000  -24.138000   18.996000 T    3066 GCA    -0.6000 ****
9198 HC1    70.821000  -20.110000   15.746000 H    3066 GCA     0.4000 ****
9199 TC2    90.813000  -21.157000   22.123000 T    3067 GCA     0.6000 ****
9200 TC1    81.855000  -18.105000   18.890000 T    3067 GCA    -0.6000 ****
9201 HC1    72.898000  -15.053000   15.657000 H    3067 GCA     0.4000 ****
9202 TC2    92.893000  -13.871000   21.999000 T    3068 GCA     0.6000 ****
9203 TC1    83.646000  -11.834000   18.783000 T    3068 GCA    -0.6000 ****
9204 HC1    74.399000   -9.797000   15.568000 H    3068 GCA     0.4000 ****
9205 TC2    94.150000   -6.399000   21.876000 T    3069 GCA     0.6000 ****
9206 TC1    84.728000   -5.403000   18.677000 T    3069 GCA    -0.6000 ****
9207 HC1    75.306000   -4.406000   15.478000 H    3069 GCA     0.4000 ****
9208 TC2    94.567000    1.167000   21.752000 T    3070 GCA     0.6000 ****
9209 TC1    85.087000    1.109000   18.571000 T    3070 GCA    -0.6000 ****
9210 HC1    75.607000    1.052000   15.389000 H    3070 GCA     0.4000 ****
9211 TC2    94.141000    8.732000   21.629000 T    3071 GCA     0.6000 ****
9212 TC1    84.720000    7.621000   18.465000 T    3071 GCA    -0.6000 ****
9213 HC1    75.299000    6.510000   15.300000 H    3071 GCA     0.4000 ****
9214 TC2    92.876000   16.203000   21.505000 T    3072 GCA     0.6000 ****
9215 TC1    83.632000   14.051000   18.358000 T    3072 GCA    -0.6000 ****
9216 HC1    74.387000   11.899000   15.211000 H    3072 GCA     0.4000 ****
9217 TC2    90.790000   23.488000   21.382000 T    3073 GCA     0.6000 ****
9218 TC1    81.836000   20.321000   18.252000 T    3073 GCA    -0.6000 ****
9219 HC1    72.882000   17.155000   15.122000 H    3073 GCA     0.4000 ****
9220 TC2    87.908000   30.495000   21.258000 T    3074 GCA     0.6000 ****
9221 TC1    79.356000   26.353000   18.146000 T    3074 GCA    -0.6000 ****
9222 HC1    70.803000   22.210000   15.033000 H    3074 GCA     0.4000 ****
9223 TC2    84.267000   37.140000   21.135000 T    3075 GCA     0.6000 ****
9224 TC1    76.222000   32.072000   18.040000 T    3075 GCA    -0.6000 ****
9225 HC1    68.176000   27.004000   14.944000 H    3075 GCA     0.4000 ****
9226 TC2    79.912000   43.341000   21.012000 T    3076 GCA     0.6000 ****
9227 TC1    72.473000   37.409000   17.933000 T    3076 GCA    -0.6000 ****
9228 HC1    65.034000   31.477000   14.855000 H    3076 GCA     0.4000 ****
9229 TC2    74.896000   49.020000   20.888000 T    3077 GCA     0.6000 ****
9230 TC1    68.156000   42.297000   17.827000 T    3077 GCA    -0.6000 ****
9231 HC1    61.416000   35.574000   14.766000 H    3077 GCA     0.4000 ****
9232 TC2    69.283000   54.110000   20.765000 T    3078 GCA     0.6000 ****
9233 TC1    63.324000   46.678000   17.721000 T    3078 GCA    -0.6000 ****
9234 HC1    57.366000   39.246000   14.677000 H    3078 GCA     0.4000 ****
9235 TC2    63.140000   58.547000   20.641000 T    3079 GCA     0.6000 ****
9236 TC1    58.038000   50.497000   17.614000 T    3079 GCA    -0.6000 ****
9237 HC1    52.935000   42.447000   14.588000 H    3079 GCA     0.4000 ****
9238 TC2    56.545000   62.277000   20.518000 T    3080 GCA     0.6000 ****
9239 TC1    52.361000   53.708000   17.508000 T    3080 GCA    -0.6000 ****
9240 HC1    48.177000   45.138000   14.499000 H    3080 GCA     0.4000 ****
9241 TC2    49.578000   65.255000   20.394000 T    3081 GCA     0.6000 ****
9242 TC1    46.364000   56.271000   17.402000 T    3081 GCA    -0.6000 ****
9243 HC1    43.150000   47.287000   14.410000 H    3081 GCA     0.4000 ****
9244 TC2    42.325000   67.446000   20.271000 T    3082 GCA     0.6000 ****
9245 TC1    40.121000   58.157000   17.296000 T    3082 GCA    -0.6000 ****
9246 HC1    37.918000   48.867000   14.321000 H    3082 GCA     0.4000 ****
9247 TC2    34.873000   68.823000   20.147000 T    3083 GCA     0.6000 ****
9248 TC1    33.708000   59.341000   17.189000 T    3083 GCA    -0.6000 ****
9249 HC1    32.542000   49.860000   14.232000 H    3083 GCA     0.4000 ****
9250 TC2    27.316000   69.368000   20.024000 T    3084 GCA     0.6000 ****
9251 TC1    27.203000   59.811000   17.083000 T    3084 GCA    -0.6000 ****
9252 HC1    27.090000   50.254000   14.142000 H    3084 GCA     0.4000 ****
9253 TC2    19.745000   69.077000   19.900000 T    3085 GCA     0.6000 ****
9254 TC1    20.686000   59.561000   16.977000 T    3085 GCA    -0.6000 ****
9255 HC1    21.628000   50.044000   14.053000 H    3085 GCA     0.4000 ****
9256 TC2    12.251000   67.954000   19.777000 T    3086 GCA     0.6000 ****
9257 TC1    14.237000   58.593000   16.871000 T    3086 GCA    -0.6000 ****
9258 HC1    16.222000   49.233000   13.964000 H    3086 GCA     0.4000 ****
9259 TC2     4.927000   66.011000   19.653000 T    3087 GCA     0.6000 ****
9260 TC1     7.933000   56.922000   16.764000 T    3087 GCA    -0.6000 ****
9261 HC1    10.938000   47.832000   13.875000 H    3087 GCA     0.4000 ****
9262 TC2    -2.138000   63.274000   19.530000 T    3088 GCA     0.6000 ****
9263 TC1     1.852000   54.566000   16.658000 T    3088 GCA    -0.6000 ****
9264 HC1     5.841000   45.857000   13.786000 H    3088 GCA     0.4000 ****
9265 TC2    -8.859000   59.776000   19.406000 T    3089 GCA     0.6000 ****
9266 TC1    -3.934000   51.555000   16.552000 T    3089 GCA    -0.6000 ****
9267 HC1     0.992000   43.334000   13.697000 H    3089 GCA     0.4000 ****
9268 TC2   -15.155000   55.560000   19.283000 T    3090 GCA     0.6000 ****
9269 TC1    -9.352000   47.926000   16.446000 T    3090 GCA    -0.6000 ****
9270 HC1    -3.550000   40.293000   13.608000 H    3090 GCA     0.4000 ****
9271 TC2   -20.949000   50.678000   19.160000 T    3091 GCA     0.6000 ****
9272 TC1   -14.340000   43.724000   16.339000 T    3091 GCA    -0.6000 ****
9273 HC1    -7.730000   36.770000   13.519000 H    3091 GCA     0.4000 ****
9274 TC2   -26.172000   45.188000   19.036000 T    3092 GCA     0.6000 ****
9275 TC1   -18.835000   38.999000   16.233000 T    3092 GCA    -0.6000 ****
9276 HC1   -11.498000   32.810000   13.430000 H    3092 GCA     0.4000 ****
9277 TC2   -30.760000   39.159000   18.913000 T    3093 GCA     0.6000 ****
9278 TC1   -22.784000   33.809000   16.127000 T    3093 GCA    -0.6000 ****
9279 HC1   -14.808000   28.460000   13.341000 H    3093 GCA     0.4000 ****
9280 TC2   -34.659000   32.662000   18.789000 T    3094 GCA     0.6000 ****
9281 TC1   -26.140000   28.217000   16.020000 T    3094 GCA    -0.6000 ****
9282 HC1   -17.620000   23.773000   13.252000 H    3094 GCA     0.4000 ****
9283 TC2   -37.822000   25.776000   18.666000 T    3095 GCA     0.6000 ****
9284 TC1   -28.862000   22.291000   15.914000 T    3095 GCA    -0.6000 ****
9285 HC1   -19.902000   18.806000   13.163000 H    3095 GCA     0.4000 ****
9286 TC2   -40.211000   18.586000   18.542000 T    3096 GCA     0.6000 ****
9287 TC1   -30.918000   16.102000   15.808000 T    3096 GCA    -0.6000 ****
9288 HC1   -21.625000   13.618000   13.074000 H    3096 GCA     0.4000 ****
9289 TC2   -41.797000   11.177000   18.419000 T    3097 GCA     0.6000 ****
9290 TC1   -32.283000    9.725000   15.702000 T    3097 GCA    -0.6000 ****
9291 HC1   -22.769000    8.273000   12.985000 H    3097 GCA     0.4000 ****
9292 TC2   -42.562000    3.639000   18.295000 T    3098 GCA     0.6000 ****
9293 TC1   -32.942000    3.237000   15.595000 T    3098 GCA    -0.6000 ****
9294 HC1   -23.322000    2.835000   12.895000 H    3098 GCA     0.4000 ****
9295 TC2   -42.497000   -3.938000   18.172000 T    3099 GCA     0.6000 ****
9296 TC1   -32.886000   -3.285000   15.489000 T    3099 GCA    -0.6000 ****
9297 HC1   -23.275000   -2.631000   12.806000 H    3099 GCA     0.4000 ****
9298 TC2   -41.604000  -11.462000   18.048000 T    3100 GCA     0.6000 ****
9299 TC1   -32.117000   -9.761000   15.383000 T    3100 GCA    -0.6000 ****
9300 HC1   -22.630000   -8.059000   12.717000 H    3100 GCA     0.4000 ****
9301 TC2   -39.893000  -18.843000   17.925000 T    3101 GCA     0.6000 ****
9302 TC1   -30.645000  -16.114000   15.277000 T    3101 GCA    -0.6000 ****
9303 HC1   -21.396000  -13.384000   12.628000 H    3101 GCA     0.4000 ****
9304 TC2   -37.386000  -25.993000   17.801000 T    3102 GCA     0.6000 ****
9305 TC1   -28.487000  -22.268000   15.170000 T    3102 GCA    -0.6000 ****
9306 HC1   -19.587000  -18.542000   12.539000 H    3102 GCA     0.4000 ****
9307 TC2   -34.112000  -32.827000   17.678000 T    3103 GCA     0.6000 ****
9308 TC1   -25.669000  -28.149000   15.064000 T    3103 GCA    -0.6000 ****
9309 HC1   -17.226000  -23.472000   12.450000 H    3103 GCA     0.4000 ****
9310 TC2   -30.112000  -39.262000   17.555000 T    3104 GCA     0.6000 ****
9311 TC1   -22.226000  -33.688000   14.958000 T    3104 GCA    -0.6000 ****
9312 HC1   -14.340000  -28.114000   12.361000 H    3104 GCA     0.4000 ****
9313 TC2   -25.433000  -45.221000   17.431000 T    3105 GCA     0.6000 ****
9314 TC1   -18.199000  -38.817000   14.852000 T    3105 GCA    -0.6000 ****
9315 HC1   -10.965000  -32.414000   12.272000 H    3105 GCA     0.4000 ****
9316 TC2   -20.133000  -50.635000   17.308000 T    3106 GCA     0.6000 ****
9317 TC1   -13.636000  -43.477000   14.745000 T    3106 GCA    -0.6000 ****
9318 HC1    -7.140000  -36.319000   12.183000 H    3106 GCA     0.4000 ****
9319 TC2   -14.273000  -55.438000   17.184000 T    3107 GCA     0.6000 ****
9320 TC1    -8.593000  -47.611000   14.639000 T    3107 GCA    -0.6000 ****
9321 HC1    -2.913000  -39.785000   12.094000 H    3107 GCA     0.4000 ****
9322 TC2    -7.925000  -59.575000   17.061000 T    3108 GCA     0.6000 ****
9323 TC1    -3.129000  -51.171000   14.533000 T    3108 GCA    -0.6000 ****
9324 HC1     1.667000  -42.768000   12.005000 H    3108 GCA     0.4000 ****
9325 TC2    -1.163000  -62.994000   16.937000 T    3109 GCA     0.6000 ****
9326 TC1     2.690000  -54.115000   14.426000 T    3109 GCA    -0.6000 ****
9327 HC1     6.544000  -45.236000   11.916000 H    3109 GCA     0.4000 ****
9328 TC2     5.930000  -65.658000   16.814000 T    3110 GCA     0.6000 ****
9329 TC1     8.796000  -56.407000   14.320000 T    3110 GCA    -0.6000 ****
9330 HC1    11.662000  -47.157000   11.827000 H    3110 GCA     0.4000 ****
9331 TC2    13.271000  -67.533000   16.690000 T    3111 GCA     0.6000 ****
9332 TC1    15.114000  -58.021000   14.214000 T    3111 GCA    -0.6000 ****
9333 HC1    16.958000  -48.510000   11.738000 H    3111 GCA     0.4000 ****
9334 TC2    20.772000  -68.598000   16.567000 T    3112 GCA     0.6000 ****
9335 TC1    21.571000  -58.938000   14.108000 T    3112 GCA    -0.6000 ****
9336 HC1    22.369000  -49.278000   11.649000 H    3112 GCA     0.4000 ****
9337 TC2    28.345000  -68.842000   16.443000 T    3113 GCA     0.6000 ****
9338 TC1    28.089000  -59.148000   14.001000 T    3113 GCA    -0.6000 ****
9339 HC1    27.833000  -49.454000   11.559000 H    3113 GCA     0.4000 ****
9340 TC2    35.900000  -68.261000   16.320000 T    3114 GCA     0.6000 ****
9341 TC1    34.591000  -58.648000   13.895000 T    3114 GCA    -0.6000 ****
9342 HC1    33.283000  -49.035000   11.470000 H    3114 GCA     0.4000 ****
9343 TC2    43.346000  -66.862000   16.196000 T    3115 GCA     0.6000 ****
9344 TC1    41.001000  -57.444000   13.789000 T    3115 GCA    -0.6000 ****
9345 HC1    38.655000  -48.026000   11.381000 H    3115 GCA     0.4000 ****
9346 TC2    50.597000  -64.663000   16.073000 T    3116 GCA     0.6000 ****
9347 TC1    47.241000  -55.551000   13.683000 T    3116 GCA    -0.6000 ****
9348 HC1    43.886000  -46.439000   11.292000 H    3116 GCA     0.4000 ****
9349 TC2    57.566000  -61.690000   15.950000 T    3117 GCA     0.6000 ****
9350 TC1    53.240000  -52.992000   13.576000 T    3117 GCA    -0.6000 ****
9351 HC1    48.913000  -44.295000   11.203000 H    3117 GCA     0.4000 ****
9352 TC2    64.171000  -57.978000   15.826000 T    3118 GCA     0.6000 ****
9353 TC1    58.925000  -49.798000   13.470000 T    3118 GCA    -0.6000 ****
9354 HC1    53.678000  -41.617000   11.114000 H    3118 GCA     0.4000 ****
9355 TC2    70.335000  -53.572000   15.703000 T    3119 GCA     0.6000 ****
9356 TC1    64.230000  -46.005000   13.364000 T    3119 GCA    -0.6000 ****
9357 HC1    58.125000  -38.438000   11.025000 H    3119 GCA     0.4000 ****
9358 TC2    75.985000  -48.524000   15.579000 T    3120 GCA     0.6000 ****
9359 TC1    69.093000  -41.660000   13.258000 T    3120 GCA    -0.6000 ****
9360 HC1    62.201000  -34.796000   10.936000 H    3120 GCA     0.4000 ****
9361 TC2    81.054000  -42.893000   15.456000 T    3121 GCA     0.6000 ****
9362 TC1    73.456000  -36.813000   13.151000 T    3121 GCA    -0.6000 ****
9363 HC1    65.858000  -30.734000   10.847000 H    3121 GCA     0.4000 ****
9364 TC2    85.484000  -36.746000   15.332000 T    3122 GCA     0.6000 ****
9365 TC1    77.269000  -31.522000   13.045000 T    3122 GCA    -0.6000 ****
9366 HC1    69.054000  -26.299000   10.758000 H    3122 GCA     0.4000 ****
9367 TC2    89.221000  -30.155000   15.209000 T    3123 GCA     0.6000 ****
9368 TC1    80.486000  -25.850000   12.939000 T    3123 GCA    -0.6000 ****
9369 HC1    71.750000  -21.545000   10.669000 H    3123 GCA     0.4000 ****
9370 TC2    92.224000  -23.199000   15.085000 T    3124 GCA     0.6000 ****
9371 TC1    83.070000  -19.863000   12.833000 T    3124 GCA    -0.6000 ****
9372 HC1    73.916000  -16.526000   10.580000 H    3124 GCA     0.4000 ****
9373 TC2    94.457000  -15.959000   14.962000 T    3125 GCA     0.6000 ****
9374 TC1    84.992000  -13.631000   12.726000 T    3125 GCA    -0.6000 ****
9375 HC1    75.527000  -11.303000   10.491000 H    3125 GCA     0.4000 ****
9376 TC2    95.893000   -8.519000   14.838000 T    3126 GCA     0.6000 ****
9377 TC1    86.228000   -7.228000   12.620000 T    3126 GCA    -0.6000 ****
9378 HC1    76.563000   -5.936000   10.402000 H    3126 GCA     0.4000 ****
9379 TC2    96.517000   -0.968000   14.715000 T    3127 GCA     0.6000 ****
9380 TC1    86.765000   -0.729000   12.514000 T    3127 GCA    -0.6000 ****
9381 HC1    77.013000   -0.489000   10.313000 H    3127 GCA     0.4000 ****
9382 TC2    96.321000    6.606000   14.591000 T    3128 GCA     0.6000 ****
9383 TC1    86.596000    5.791000   12.407000 T    3128 GCA    -0.6000 ****
9384 HC1    76.872000    4.976000   10.223000 H    3128 GCA     0.4000 ****
9385 TC2    95.308000   14.114000   14.468000 T    3129 GCA     0.6000 ****
9386 TC1    85.724000   12.253000   12.301000 T    3129 GCA    -0.6000 ****
9387 HC1    76.141000   10.392000   10.134000 H    3129 GCA     0.4000 ****
9388 TC2    93.490000   21.470000   14.345000 T    3130 GCA     0.6000 ****
9389 TC1    84.160000   18.584000   12.195000 T    3130 GCA    -0.6000 ****
9390 HC1    74.830000   15.699000   10.045000 H    3130 GCA     0.4000 ****
9391 TC2    90.889000   28.586000   14.221000 T    3131 GCA     0.6000 ****
9392 TC1    81.921000   24.709000   12.089000 T    3131 GCA    -0.6000 ****
9393 HC1    72.953000   20.832000    9.956000 H    3131 GCA     0.4000 ****
9394 TC2    87.536000   35.380000   14.098000 T    3132 GCA     0.6000 ****
9395 TC1    79.035000   30.557000   11.982000 T    3132 GCA    -0.6000 ****
9396 HC1    70.534000   25.734000    9.867000 H    3132 GCA     0.4000 ****
9397 TC2    83.469000   41.772000   13.974000 T    3133 GCA     0.6000 ****
9398 TC1    75.535000   36.059000   11.876000 T    3133 GCA    -0.6000 ****
9399 HC1    67.600000   30.346000    9.778000 H    3133 GCA     0.4000 ****
9400 TC2    78.737000   47.690000   13.851000 T    3134 GCA     0.6000 ****
9401 TC1    71.462000   41.152000   11.770000 T    3134 GCA    -0.6000 ****
9402 HC1    64.187000   34.614000    9.689000 H    3134 GCA     0.4000 ****
9403 TC2    73.395000   53.062000   13.727000 T    3135 GCA     0.6000 ****
9404 TC1    66.864000   45.776000   11.664000 T    3135 GCA    -0.6000 ****
9405 HC1    60.333000   38.490000    9.600000 H    3135 GCA     0.4000 ****
9406 TC2    67.505000   57.828000   13.604000 T    3136 GCA     0.6000 ****
9407 TC1    61.794000   49.878000   11.557000 T    3136 GCA    -0.6000 ****
9408 HC1    56.083000   41.929000    9.511000 H    3136 GCA     0.4000 ****
9409 TC2    61.136000   61.932000   13.480000 T    3137 GCA     0.6000 ****
9410 TC1    56.313000   53.411000   11.451000 T    3137 GCA    -0.6000 ****
9411 HC1    51.489000   44.889000    9.422000 H    3137 GCA     0.4000 ****
9412 TC2    54.363000   65.326000   13.357000 T    3138 GCA     0.6000 ****
9413 TC1    50.483000   56.332000   11.345000 T    3138 GCA    -0.6000 ****
9414 HC1    46.602000   47.338000    9.333000 H    3138 GCA     0.4000 ****
9415 TC2    47.263000   67.972000   13.233000 T    3139 GCA     0.6000 ****
9416 TC1    44.372000   58.609000   11.239000 T    3139 GCA    -0.6000 ****
9417 HC1    41.481000   49.247000    9.244000 H    3139 GCA     0.4000 ****
9418 TC2    39.920000   69.839000   13.110000 T    3140 GCA     0.6000 ****
9419 TC1    38.052000   60.216000   11.132000 T    3140 GCA    -0.6000 ****
9420 HC1    36.183000   50.594000    9.155000 H    3140 GCA     0.4000 ****
9421 TC2    32.419000   70.905000   12.986000 T    3141 GCA     0.6000 ****
9422 TC1    31.596000   61.134000   11.026000 T    3141 GCA    -0.6000 ****
9423 HC1    30.772000   51.363000    9.066000 H    3141 GCA     0.4000 ****
9424 TC2    24.847000   71.159000   12.863000 T    3142 GCA     0.6000 ****
9425 TC1    25.078000   61.353000   10.920000 T    3142 GCA    -0.6000 ****
9426 HC1    25.309000   51.546000    8.976000 H    3142 GCA     0.4000 ****
9427 TC2    17.292000   70.598000   12.740000 T    3143 GCA     0.6000 ****
9428 TC1    18.575000   60.870000   10.813000 T    3143 GCA    -0.6000 ****
9429 HC1    19.858000   51.141000    8.887000 H    3143 GCA     0.4000 ****
9430 TC2     9.840000   69.229000   12.616000 T    3144 GCA     0.6000 ****
9431 TC1    12.161000   59.691000   10.707000 T    3144 GCA    -0.6000 ****
9432 HC1    14.482000   50.153000    8.798000 H    3144 GCA     0.4000 ****
9433 TC2     2.578000   67.067000   12.493000 T    3145 GCA     0.6000 ****
9434 TC1     5.911000   57.830000   10.601000 T    3145 GCA    -0.6000 ****
9435 HC1     9.244000   48.594000    8.709000 H    3145 GCA     0.4000 ****
9436 TC2    -4.409000   64.138000   12.369000 T    3146 GCA     0.6000 ****
9437 TC1    -0.103000   55.309000   10.495000 T    3146 GCA    -0.6000 ****
9438 HC1     4.203000   46.481000    8.620000 H    3146 GCA     0.4000 ****
9439 TC2   -11.042000   60.476000   12.246000 T    3147 GCA     0.6000 ****
9440 TC1    -5.812000   52.158000   10.388000 T    3147 GCA    -0.6000 ****
9441 HC1    -0.582000   43.839000    8.531000 H    3147 GCA     0.4000 ****
9442 TC2   -17.243000   56.124000   12.122000 T    3148 GCA     0.6000 ****
9443 TC1   -11.150000   48.412000   10.282000 T    3148 GCA    -0.6000 ****
9444 HC1    -5.056000   40.699000    8.442000 H    3148 GCA     0.4000 ****
9445 TC2   -22.943000   51.132000   11.999000 T    3149 GCA     0.6000 ****
9446 TC1   -16.055000   44.115000   10.176000 T    3149 GCA    -0.6000 ****
9447 HC1    -9.168000   37.098000    8.353000 H    3149 GCA     0.4000 ****
9448 TC2   -28.074000   45.558000   11.875000 T    3150 GCA     0.6000 ****
9449 TC1   -20.472000   39.317000   10.070000 T    3150 GCA    -0.6000 ****
9450 HC1   -12.869000   33.077000    8.264000 H    3150 GCA     0.4000 ****
9451 TC2   -32.578000   39.466000   11.752000 T    3151 GCA     0.6000 ****
9452 TC1   -24.349000   34.074000    9.963000 T    3151 GCA    -0.6000 ****
9453 HC1   -16.119000   28.682000    8.175000 H    3151 GCA     0.4000 ****
9454 TC2   -36.404000   32.926000   11.628000 T    3152 GCA     0.6000 ****
9455 TC1   -27.641000   28.445000    9.857000 T    3152 GCA    -0.6000 ****
9456 HC1   -18.879000   23.964000    8.086000 H    3152 GCA     0.4000 ****
9457 TC2   -39.507000   26.015000   11.505000 T    3153 GCA     0.6000 ****
9458 TC1   -30.312000   22.496000    9.751000 T    3153 GCA    -0.6000 ****
9459 HC1   -21.118000   18.978000    7.997000 H    3153 GCA     0.4000 ****
9460 TC2   -41.853000   18.811000   11.381000 T    3154 GCA     0.6000 ****
9461 TC1   -32.331000   16.295000    9.645000 T    3154 GCA    -0.6000 ****
9462 HC1   -22.810000   13.780000    7.908000 H    3154 GCA     0.4000 ****
9463 TC2   -43.413000   11.397000   11.258000 T    3155 GCA     0.6000 ****
9464 TC1   -33.675000    9.914000    9.538000 T    3155 GCA    -0.6000 ****
9465 HC1   -23.936000    8.432000    7.819000 H    3155 GCA     0.4000 ****
9466 TC2   -44.172000    3.859000   11.134000 T    3156 GCA     0.6000 ****
9467 TC1   -34.328000    3.426000    9.432000 T    3156 GCA    -0.6000 ****
9468 HC1   -24.483000    2.994000    7.730000 H    3156 GCA     0.4000 ****
9469 TC2   -44.120000   -3.718000   11.011000 T    3157 GCA     0.6000 ****
9470 TC1   -34.283000   -3.095000    9.326000 T    3157 GCA    -0.6000 ****
9471 HC1   -24.446000   -2.472000    7.640000 H    3157 GCA     0.4000 ****
9472 TC2   -43.258000  -11.245000   10.888000 T    3158 GCA     0.6000 ****
9473 TC1   -33.541000   -9.573000    9.219000 T    3158 GCA    -0.6000 ****
9474 HC1   -23.824000   -7.902000    7.551000 H    3158 GCA     0.4000 ****
9475 TC2   -41.597000  -18.637000   10.764000 T    3159 GCA     0.6000 ****
9476 TC1   -32.111000  -15.936000    9.113000 T    3159 GCA    -0.6000 ****
9477 HC1   -22.625000  -13.235000    7.462000 H    3159 GCA     0.4000 ****
9478 TC2   -39.154000  -25.808000   10.641000 T    3160 GCA     0.6000 ****
9479 TC1   -30.009000  -22.109000    9.007000 T    3160 GCA    -0.6000 ****
9480 HC1   -20.863000  -18.409000    7.373000 H    3160 GCA     0.4000 ****
9481 TC2   -35.960000  -32.678000   10.517000 T    3161 GCA     0.6000 ****
9482 TC1   -27.259000  -28.022000    8.901000 T    3161 GCA    -0.6000 ****
9483 HC1   -18.559000  -23.365000    7.284000 H    3161 GCA     0.4000 ****
9484 TC2   -32.050000  -39.168000   10.394000 T    3162 GCA     0.6000 ****
9485 TC1   -23.894000  -33.607000    8.794000 T    3162 GCA    -0.6000 ****
9486 HC1   -15.738000  -28.046000    7.195000 H    3162 GCA     0.4000 ****
9487 TC2   -27.470000  -45.203000   10.270000 T    3163 GCA     0.6000 ****
9488 TC1   -19.952000  -38.801000    8.688000 T    3163 GCA    -0.6000 ****
9489 HC1   -12.434000  -32.400000    7.106000 H    3163 GCA     0.4000 ****
9490 TC2   -22.271000  -50.714000   10.147000 T    3164 GCA     0.6000 ****
9491 TC1   -15.477000  -43.545000    8.582000 T    3164 GCA    -0.6000 ****
9492 HC1    -8.683000  -36.376000    7.017000 H    3164 GCA     0.4000 ****
9493 TC2   -16.514000  -55.639000   10.023000 T    3165 GCA     0.6000 ****
9494 TC1   -10.522000  -47.784000    8.476000 T    3165 GCA    -0.6000 ****
9495 HC1    -4.530000  -39.929000    6.928000 H    3165 GCA     0.4000 ****
9496 TC2   -10.265000  -59.922000    9.900000 T    3166 GCA     0.6000 ****
9497 TC1    -5.143000  -51.470000    8.369000 T    3166 GCA    -0.6000 ****
9498 HC1    -0.022000  -43.019000    6.839000 H    3166 GCA     0.4000 ****
9499 TC2    -3.594000  -63.513000    9.776000 T    3167 GCA     0.6000 ****
9500 TC1     0.598000  -54.562000    8.263000 T    3167 GCA    -0.6000 ****
9501 HC1     4.791000  -45.610000    6.750000 H    3167 GCA     0.4000 ****
9502 TC2     3.421000  -66.373000    9.653000 T    3168 GCA     0.6000 ****
9503 TC1     6.637000  -57.023000    8.157000 T    3168 GCA    -0.6000 ****
9504 HC1     9.852000  -47.673000    6.661000 H    3168 GCA     0.4000 ****
9505 TC2    10.702000  -68.469000    9.529000 T    3169 GCA     0.6000 ****
9506 TC1    12.903000  -58.827000    8.051000 T    3169 GCA    -0.6000 ****
9507 HC1    15.104000  -49.185000    6.572000 H    3169 GCA     0.4000 ****
9508 TC2    18.164000  -69.777000    9.406000 T    3170 GCA     0.6000 ****
9509 TC1    19.326000  -59.953000    7.944000 T    3170 GCA    -0.6000 ****
9510 HC1    20.488000  -50.129000    6.483000 H    3170 GCA     0.4000 ****
9511 TC2    25.724000  -70.282000    9.283000 T    3171 GCA     0.6000 ****
9512 TC1    25.833000  -60.388000    7.838000 T    3171 GCA    -0.6000 ****
9513 HC1    25.941000  -50.493000    6.393000 H    3171 GCA     0.4000 ****
9514 TC2    33.294000  -69.979000    9.159000 T    3172 GCA     0.6000 ****
9515 TC1    32.348000  -60.127000    7.732000 T    3172 GCA    -0.6000 ****
9516 HC1    31.403000  -50.275000    6.304000 H    3172 GCA     0.4000 ****
9517 TC2    40.789000  -68.872000    9.036000 T    3173 GCA     0.6000 ****
9518 TC1    38.799000  -59.174000    7.625000 T    3173 GCA    -0.6000 ****
9519 HC1    36.810000  -49.476000    6.215000 H    3173 GCA     0.4000 ****
9520 TC2    48.123000  -66.973000    8.912000 T    3174 GCA     0.6000 ****
9521 TC1    45.112000  -57.540000    7.519000 T    3174 GCA    -0.6000 ****
9522 HC1    42.101000  -48.106000    6.126000 H    3174 GCA     0.4000 ****
9523 TC2    55.213000  -64.304000    8.789000 T    3175 GCA     0.6000 ****
9524 TC1    51.215000  -55.243000    7.413000 T    3175 GCA    -0.6000 ****
9525 HC1    47.216000  -46.181000    6.037000 H    3175 GCA     0.4000 ****
9526 TC2    61.980000  -60.896000    8.665000 T    3176 GCA     0.6000 ****
9527 TC1    57.038000  -52.309000    7.307000 T    3176 GCA    -0.6000 ****
9528 HC1    52.097000  -43.722000    5.948000 H    3176 GCA     0.4000 ****
9529 TC2    68.345000  -56.788000    8.542000 T    3177 GCA     0.6000 ****
9530 TC1    62.517000  -48.773000    7.200000 T    3177 GCA    -0.6000 ****
9531 HC1    56.689000  -40.758000    5.859000 H    3177 GCA     0.4000 ****
9532 TC2    74.237000  -52.025000    8.418000 T    3178 GCA     0.6000 ****
9533 TC1    67.588000  -44.674000    7.094000 T    3178 GCA    -0.6000 ****
9534 HC1    60.940000  -37.322000    5.770000 H    3178 GCA     0.4000 ****
9535 TC2    79.589000  -46.663000    8.295000 T    3179 GCA     0.6000 ****
9536 TC1    72.195000  -40.058000    6.988000 T    3179 GCA    -0.6000 ****
9537 HC1    64.801000  -33.454000    5.681000 H    3179 GCA     0.4000 ****
9538 TC2    84.341000  -40.762000    8.171000 T    3180 GCA     0.6000 ****
9539 TC1    76.285000  -34.980000    6.882000 T    3180 GCA    -0.6000 ****
9540 HC1    68.229000  -29.197000    5.592000 H    3180 GCA     0.4000 ****
9541 TC2    88.438000  -34.390000    8.048000 T    3181 GCA     0.6000 ****
9542 TC1    79.812000  -29.495000    6.775000 T    3181 GCA    -0.6000 ****
9543 HC1    71.185000  -24.600000    5.503000 H    3181 GCA     0.4000 ****
9544 TC2    91.836000  -27.619000    7.924000 T    3182 GCA     0.6000 ****
9545 TC1    82.736000  -23.667000    6.669000 T    3182 GCA    -0.6000 ****
9546 HC1    73.636000  -19.715000    5.414000 H    3182 GCA     0.4000 ****
9547 TC2    94.494000  -20.524000    7.801000 T    3183 GCA     0.6000 ****
9548 TC1    85.024000  -17.561000    6.563000 T    3183 GCA    -0.6000 ****
9549 HC1    75.554000  -14.597000    5.325000 H    3183 GCA     0.4000 ****
9550 TC2    96.384000  -13.188000    7.678000 T    3184 GCA     0.6000 ****
9551 TC1    86.651000  -11.246000    6.457000 T    3184 GCA    -0.6000 ****
9552 HC1    76.918000   -9.304000    5.236000 H    3184 GCA     0.4000 ****
9553 TC2    97.484000   -5.692000    7.554000 T    3185 GCA     0.6000 ****
9554 TC1    87.598000   -4.794000    6.350000 T    3185 GCA    -0.6000 ****
9555 HC1    77.711000   -3.896000    5.147000 H    3185 GCA     0.4000 ****
9556 TC2    97.783000    1.878000    7.431000 T    3186 GCA     0.6000 ****
9557 TC1    87.854000    1.721000    6.244000 T    3186 GCA    -0.6000 ****
9558 HC1    77.926000    1.565000    5.057000 H    3186 GCA     0.4000 ****
9559 TC2    97.275000    9.437000    7.307000 T    3187 GCA     0.6000 ****
9560 TC1    87.418000    8.227000    6.138000 T    3187 GCA    -0.6000 ****
9561 HC1    77.560000    7.018000    4.968000 H    3187 GCA     0.4000 ****
9562 TC2    95.969000   16.899000    7.184000 T    3188 GCA     0.6000 ****
9563 TC1    86.293000   14.650000    6.031000 T    3188 GCA    -0.6000 ****
9564 HC1    76.618000   12.402000    4.879000 H    3188 GCA     0.4000 ****
9565 TC2    93.878000   24.181000    7.060000 T    3189 GCA     0.6000 ****
9566 TC1    84.494000   20.918000    5.925000 T    3189 GCA    -0.6000 ****
9567 HC1    75.109000   17.655000    4.790000 H    3189 GCA     0.4000 ****
9568 TC2    91.026000   31.200000    6.937000 T    3190 GCA     0.6000 ****
9569 TC1    82.039000   26.959000    5.819000 T    3190 GCA    -0.6000 ****
9570 HC1    73.052000   22.718000    4.701000 H    3190 GCA     0.4000 ****
9571 TC2    87.446000   37.876000    6.813000 T    3191 GCA     0.6000 ****
9572 TC1    78.958000   32.706000    5.713000 T    3191 GCA    -0.6000 ****
9573 HC1    70.469000   27.535000    4.612000 H    3191 GCA     0.4000 ****
9574 TC2    83.178000   44.136000    6.690000 T    3192 GCA     0.6000 ****
9575 TC1    75.284000   38.093000    5.606000 T    3192 GCA    -0.6000 ****
9576 HC1    67.390000   32.051000    4.523000 H    3192 GCA     0.4000 ****
9577 TC2    78.271000   49.907000    6.566000 T    3193 GCA     0.6000 ****
9578 TC1    71.060000   43.061000    5.500000 T    3193 GCA    -0.6000 ****
9579 HC1    63.850000   36.214000    4.434000 H    3193 GCA     0.4000 ****
9580 TC2    72.779000   55.126000    6.443000 T    3194 GCA     0.6000 ****
9581 TC1    66.333000   47.553000    5.394000 T    3194 GCA    -0.6000 ****
9582 HC1    59.888000   39.979000    4.345000 H    3194 GCA     0.4000 ****
9583 TC2    66.765000   59.733000    6.319000 T    3195 GCA     0.6000 ****
9584 TC1    61.157000   51.518000    5.288000 T    3195 GCA    -0.6000 ****
9585 HC1    55.550000   43.303000    4.256000 H    3195 GCA     0.4000 ****
9586 TC2    60.297000   63.677000    6.196000 T    3196 GCA     0.6000 ****
9587 TC1    55.590000   54.913000    5.181000 T    3196 GCA    -0.6000 ****
9588 HC1    50.883000   46.148000    4.167000 H    3196 GCA     0.4000 ****
9589 TC2    53.447000   66.914000    6.073000 T    3197 GCA     0.6000 ****
9590 TC1    49.694000   57.699000    5.075000 T    3197 GCA    -0.6000 ****
9591 HC1    45.942000   48.483000    4.078000 H    3197 GCA     0.4000 ****
9592 TC2    46.293000   69.407000    5.949000 T    3198 GCA     0.6000 ****
9593 TC1    43.537000   59.844000    4.969000 T    3198 GCA    -0.6000 ****
9594 HC1    40.781000   50.282000    3.989000 H    3198 GCA     0.4000 ****
9595 TC2    38.915000   71.128000    5.826000 T    3199 GCA     0.6000 ****
9596 TC1    37.187000   61.326000    4.863000 T    3199 GCA    -0.6000 ****
9597 HC1    35.458000   51.523000    3.900000 H    3199 GCA     0.4000 ****
9598 TC2    31.397000   72.058000    5.702000 T    3200 GCA     0.6000 ****
9599 TC1    30.715000   62.126000    4.756000 T    3200 GCA    -0.6000 ****
9600 HC1    30.034000   52.194000    3.810000 H    3200 GCA     0.4000 ****
9601 TC2    23.822000   72.187000    5.579000 T    3201 GCA     0.6000 ****
9602 TC1    24.196000   62.237000    4.650000 T    3201 GCA    -0.6000 ****
9603 HC1    24.569000   52.287000    3.721000 H    3201 GCA     0.4000 ****
9604 TC2    16.276000   71.513000    5.455000 T    3202 GCA     0.6000 ****
9605 TC1    17.701000   61.657000    4.544000 T    3202 GCA    -0.6000 ****
9606 HC1    19.126000   51.801000    3.632000 H    3202 GCA     0.4000 ****
9607 TC2     8.844000   70.045000    5.332000 T    3203 GCA     0.6000 ****
9608 TC1    11.304000   60.393000    4.438000 T    3203 GCA    -0.6000 ****
9609 HC1    13.764000   50.742000    3.543000 H    3203 GCA     0.4000 ****
9610 TC2     1.609000   67.798000    5.208000 T    3204 GCA     0.6000 ****
9611 TC1     5.077000   58.459000    4.331000 T    3204 GCA    -0.6000 ****
9612 HC1     8.545000   49.121000    3.454000 H    3204 GCA     0.4000 ****
9613 TC2    -5.347000   64.798000    5.085000 T    3205 GCA     0.6000 ****
9614 TC1    -0.911000   55.877000    4.225000 T    3205 GCA    -0.6000 ****
9615 HC1     3.526000   46.957000    3.365000 H    3205 GCA     0.4000 ****
9616 TC2   -11.948000   61.079000    4.961000 T    3206 GCA     0.6000 ****
9617 TC1    -6.592000   52.676000    4.119000 T    3206 GCA    -0.6000 ****
9618 HC1    -1.236000   44.274000    3.276000 H    3206 GCA     0.4000 ****
9619 TC2   -18.117000   56.683000    4.838000 T    3207 GCA     0.6000 ****
9620 TC1   -11.902000   48.893000    4.012000 T    3207 GCA    -0.6000 ****
9621 HC1    -5.687000   41.102000    3.187000 H    3207 GCA     0.4000 ****
9622 TC2   -23.787000   51.659000    4.714000 T    3208 GCA     0.6000 ****
9623 TC1   -16.782000   44.568000    3.906000 T    3208 GCA    -0.6000 ****
9624 HC1    -9.777000   37.478000    3.098000 H    3208 GCA     0.4000 ****
9625 TC2   -28.895000   46.063000    4.591000 T    3209 GCA     0.6000 ****
9626 TC1   -21.178000   39.752000    3.800000 T    3209 GCA    -0.6000 ****
9627 HC1   -13.462000   33.441000    3.009000 H    3209 GCA     0.4000 ****
9628 TC2   -33.381000   39.959000    4.468000 T    3210 GCA     0.6000 ****
9629 TC1   -25.040000   34.498000    3.694000 T    3210 GCA    -0.6000 ****
9630 HC1   -16.698000   29.037000    2.920000 H    3210 GCA     0.4000 ****
9631 TC2   -37.198000   33.415000    4.344000 T    3211 GCA     0.6000 ****
9632 TC1   -28.325000   28.866000    3.587000 T    3211 GCA    -0.6000 ****
9633 HC1   -19.452000   24.316000    2.831000 H    3211 GCA     0.4000 ****
9634 TC2   -40.301000   26.504000    4.221000 T    3212 GCA     0.6000 ****
9635 TC1   -30.996000   22.917000    3.481000 T    3212 GCA    -0.6000 ****
9636 HC1   -21.690000   19.331000    2.742000 H    3212 GCA     0.4000 ****
9637 TC2   -42.656000   19.304000    4.097000 T    3213 GCA     0.6000 ****
9638 TC1   -33.023000   16.720000    3.375000 T    3213 GCA    -0.6000 ****
9639 HC1   -23.390000   14.136000    2.653000 H    3213 GCA     0.4000 ****
9640 TC2   -44.238000   11.895000    3.974000 T    3214 GCA     0.6000 ****
9641 TC1   -34.384000   10.343000    3.269000 T    3214 GCA    -0.6000 ****
9642 HC1   -24.531000    8.791000    2.564000 H    3214 GCA     0.4000 ****
9643 TC2   -45.028000    4.361000    3.850000 T    3215 GCA     0.6000 ****
9644 TC1   -35.064000    3.858000    3.162000 T    3215 GCA    -0.6000 ****
9645 HC1   -25.100000    3.356000    2.474000 H    3215 GCA     0.4000 ****
9646 TC2   -45.017000   -3.215000    3.727000 T    3216 GCA     0.6000 ****
9647 TC1   -35.055000   -2.662000    3.056000 T    3216 GCA    -0.6000 ****
9648 HC1   -25.092000   -2.109000    2.385000 H    3216 GCA     0.4000 ****
9649 TC2   -44.206000  -10.747000    3.603000 T    3217 GCA     0.6000 ****
9650 TC1   -34.357000   -9.145000    2.950000 T    3217 GCA    -0.6000 ****
9651 HC1   -24.507000   -7.543000    2.296000 H    3217 GCA     0.4000 ****
9652 TC2   -42.604000  -18.152000    3.480000 T    3218 GCA     0.6000 ****
9653 TC1   -32.978000  -15.518000    2.844000 T    3218 GCA    -0.6000 ****
9654 HC1   -23.352000  -12.885000    2.207000 H    3218 GCA     0.4000 ****
9655 TC2   -40.229000  -25.345000    3.356000 T    3219 GCA     0.6000 ****
9656 TC1   -30.933000  -21.710000    2.737000 T    3219 GCA    -0.6000 ****
9657 HC1   -21.638000  -18.075000    2.118000 H    3219 GCA     0.4000 ****
9658 TC2   -37.107000  -32.248000    3.233000 T    3220 GCA     0.6000 ****
9659 TC1   -28.247000  -27.651000    2.631000 T    3220 GCA    -0.6000 ****
9660 HC1   -19.386000  -23.054000    2.029000 H    3220 GCA     0.4000 ****
9661 TC2   -33.274000  -38.782000    3.109000 T    3221 GCA     0.6000 ****
9662 TC1   -24.948000  -33.275000    2.525000 T    3221 GCA    -0.6000 ****
9663 HC1   -16.621000  -27.768000    1.940000 H    3221 GCA     0.4000 ****
9664 TC2   -28.773000  -44.876000    2.986000 T    3222 GCA     0.6000 ****
9665 TC1   -21.073000  -38.520000    2.418000 T    3222 GCA    -0.6000 ****
9666 HC1   -13.374000  -32.164000    1.851000 H    3222 GCA     0.4000 ****
9667 TC2   -23.653000  -50.460000    2.862000 T    3223 GCA     0.6000 ****
9668 TC1   -16.667000  -43.326000    2.312000 T    3223 GCA    -0.6000 ****
9669 HC1    -9.680000  -36.193000    1.762000 H    3223 GCA     0.4000 ****
9670 TC2   -17.973000  -55.472000    2.739000 T    3224 GCA     0.6000 ****
9671 TC1   -11.778000  -47.640000    2.206000 T    3224 GCA    -0.6000 ****
9672 HC1    -5.583000  -39.809000    1.673000 H    3224 GCA     0.4000 ****
9673 TC2   -11.796000  -59.857000    2.616000 T    3225 GCA     0.6000 ****
9674 TC1    -6.461000  -51.414000    2.100000 T    3225 GCA    -0.6000 ****
9675 HC1    -1.126000  -42.972000    1.584000 H    3225 GCA     0.4000 ****
9676 TC2    -5.190000  -63.565000    2.492000 T    3226 GCA     0.6000 ****
9677 TC1    -0.775000  -54.606000    1.993000 T    3226 GCA    -0.6000 ****
9678 HC1     3.640000  -45.647000    1.495000 H    3226 GCA     0.4000 ****
9679 TC2     1.771000  -66.556000    2.369000 T    3227 GCA     0.6000 ****
9680 TC1     5.216000  -57.180000    1.887000 T    3227 GCA    -0.6000 ****
9681 HC1     8.661000  -47.805000    1.406000 H    3227 GCA     0.4000 ****
9682 TC2     9.008000  -68.795000    2.245000 T    3228 GCA     0.6000 ****
9683 TC1    11.445000  -59.108000    1.781000 T    3228 GCA    -0.6000 ****
9684 HC1    13.882000  -49.420000    1.317000 H    3228 GCA     0.4000 ****
9685 TC2    16.441000  -70.258000    2.122000 T    3229 GCA     0.6000 ****
9686 TC1    17.842000  -60.367000    1.675000 T    3229 GCA    -0.6000 ****
9687 HC1    19.244000  -50.476000    1.227000 H    3229 GCA     0.4000 ****
9688 TC2    23.986000  -70.929000    1.998000 T    3230 GCA     0.6000 ****
9689 TC1    24.337000  -60.944000    1.568000 T    3230 GCA    -0.6000 ****
9690 HC1    24.688000  -50.960000    1.138000 H    3230 GCA     0.4000 ****
9691 TC2    31.561000  -70.800000    1.875000 T    3231 GCA     0.6000 ****
9692 TC1    30.857000  -60.833000    1.462000 T    3231 GCA    -0.6000 ****
9693 HC1    30.152000  -50.867000    1.049000 H    3231 GCA     0.4000 ****
9694 TC2    39.079000  -69.873000    1.751000 T    3232 GCA     0.6000 ****
9695 TC1    37.328000  -60.035000    1.356000 T    3232 GCA    -0.6000 ****
9696 HC1    35.576000  -50.198000    0.960000 H    3232 GCA     0.4000 ****
9697 TC2    46.458000  -68.158000    1.628000 T    3233 GCA     0.6000 ****
9698 TC1    43.679000  -58.559000    1.250000 T    3233 GCA    -0.6000 ****
9699 HC1    40.900000  -48.961000    0.871000 H    3233 GCA     0.4000 ****
9700 TC2    53.615000  -65.674000    1.504000 T    3234 GCA     0.6000 ****
9701 TC1    49.839000  -56.421000    1.143000 T    3234 GCA    -0.6000 ****
9702 HC1    46.063000  -47.169000    0.782000 H    3234 GCA     0.4000 ****
9703 TC2    60.470000  -62.449000    1.381000 T    3235 GCA     0.6000 ****
9704 TC1    55.739000  -53.646000    1.037000 T    3235 GCA    -0.6000 ****
9705 HC1    51.008000  -44.842000    0.693000 H    3235 GCA     0.4000 ****
9706 TC2    66.946000  -58.519000    1.257000 T    3236 GCA     0.6000 ****
9707 TC1    61.313000  -50.263000    0.931000 T    3236 GCA    -0.6000 ****
9708 HC1    55.680000  -42.007000    0.604000 H    3236 GCA     0.4000 ****
9709 TC2    72.972000  -53.929000    1.134000 T    3237 GCA     0.6000 ****
9710 TC1    66.500000  -46.312000    0.824000 T    3237 GCA    -0.6000 ****
9711 HC1    60.027000  -38.695000    0.515000 H    3237 GCA     0.4000 ****
9712 TC2    78.480000  -48.728000    1.011000 T    3238 GCA     0.6000 ****
9713 TC1    71.241000  -41.836000    0.718000 T    3238 GCA    -0.6000 ****
9714 HC1    64.001000  -34.944000    0.426000 H    3238 GCA     0.4000 ****
9715 TC2    83.410000  -42.976000    0.887000 T    3239 GCA     0.6000 ****
9716 TC1    75.483000  -36.885000    0.612000 T    3239 GCA    -0.6000 ****
9717 HC1    67.557000  -30.794000    0.337000 H    3239 GCA     0.4000 ****
9718 TC2    87.705000  -36.736000    0.764000 T    3240 GCA     0.6000 ****
9719 TC1    79.180000  -31.514000    0.506000 T    3240 GCA    -0.6000 ****
9720 HC1    70.656000  -26.292000    0.248000 H    3240 GCA     0.4000 ****
9721 TC2    91.318000  -30.078000    0.640000 T    3241 GCA     0.6000 ****
9722 TC1    82.290000  -25.783000    0.399000 T    3241 GCA    -0.6000 ****
9723 HC1    73.263000  -21.489000    0.159000 H    3241 GCA     0.4000 ****
9724 TC2    94.209000  -23.076000    0.517000 T    3242 GCA     0.6000 ****
9725 TC1    84.779000  -19.757000    0.293000 T    3242 GCA    -0.6000 ****
9726 HC1    75.349000  -16.437000    0.070000 H    3242 GCA     0.4000 ****
9727 TC2    96.346000  -15.808000    0.393000 T    3243 GCA     0.6000 ****
9728 TC1    86.618000  -13.501000    0.187000 T    3243 GCA    -0.6000 ****
9729 HC1    76.890000  -11.194000   -0.019000 H    3243 GCA     0.4000 ****
9730 TC2    97.705000   -8.356000    0.270000 T    3244 GCA     0.6000 ****
9731 TC1    87.788000   -7.087000    0.081000 T    3244 GCA    -0.6000 ****
9732 HC1    77.871000   -5.818000   -0.109000 H    3244 GCA     0.4000 ****
9733 TC2    98.271000   -0.801000    0.146000 T    3245 GCA     0.6000 ****
9734 TC1    88.275000   -0.585000   -0.026000 T    3245 GCA    -0.6000 ****
9735 HC1    78.279000   -0.368000   -0.198000 H    3245 GCA     0.4000 ****
9736 TC2    98.037000    6.770000    0.023000 T    3246 GCA     0.6000 ****
9737 TC1    88.074000    5.932000   -0.132000 T    3246 GCA    -0.6000 ****
9738 HC1    78.110000    5.094000   -0.287000 H    3246 GCA     0.4000 ****
9739 TC2    97.007000   14.275000   -0.101000 T    3247 GCA     0.6000 ****
9740 TC1    87.187000   12.392000   -0.238000 T    3247 GCA    -0.6000 ****
9741 HC1    77.367000   10.509000   -0.376000 H    3247 GCA     0.4000 ****
9742 TC2    95.191000   21.630000   -0.224000 T    3248 GCA     0.6000 ****
9743 TC1    85.624000   18.722000   -0.344000 T    3248 GCA    -0.6000 ****
9744 HC1    76.057000   15.814000   -0.465000 H    3248 GCA     0.4000 ****
9745 TC2    92.610000   28.752000   -0.348000 T    3249 GCA     0.6000 ****
9746 TC1    83.402000   24.852000   -0.451000 T    3249 GCA    -0.6000 ****
9747 HC1    74.195000   20.952000   -0.554000 H    3249 GCA     0.4000 ****
9748 TC2    89.293000   35.562000   -0.471000 T    3250 GCA     0.6000 ****
9749 TC1    80.547000   30.714000   -0.557000 T    3250 GCA    -0.6000 ****
9750 HC1    71.802000   25.865000   -0.643000 H    3250 GCA     0.4000 ****
9751 TC2    85.276000   41.985000   -0.594000 T    3251 GCA     0.6000 ****
9752 TC1    77.090000   36.242000   -0.663000 T    3251 GCA    -0.6000 ****
9753 HC1    68.904000   30.499000   -0.732000 H    3251 GCA     0.4000 ****
9754 TC2    80.605000   47.949000   -0.718000 T    3252 GCA     0.6000 ****
9755 TC1    73.070000   41.375000   -0.770000 T    3252 GCA    -0.6000 ****
9756 HC1    65.534000   34.801000   -0.821000 H    3252 GCA     0.4000 ****
9757 TC2    75.332000   53.387000   -0.841000 T    3253 GCA     0.6000 ****
9758 TC1    68.531000   46.056000   -0.876000 T    3253 GCA    -0.6000 ****
9759 HC1    61.730000   38.725000   -0.910000 H    3253 GCA     0.4000 ****
9760 TC2    69.514000   58.239000   -0.965000 T    3254 GCA     0.6000 ****
9761 TC1    63.524000   50.232000   -0.982000 T    3254 GCA    -0.6000 ****
9762 HC1    57.533000   42.225000   -0.999000 H    3254 GCA     0.4000 ****
9763 TC2    63.218000   62.451000   -1.088000 T    3255 GCA     0.6000 ****
9764 TC1    58.104000   53.857000   -1.088000 T    3255 GCA    -0.6000 ****
9765 HC1    52.991000   45.263000   -1.088000 H    3255 GCA     0.4000 ****
9766 TC2    56.513000   65.975000   -1.212000 T    3256 GCA     0.6000 ****
9767 TC1    52.333000   56.891000   -1.195000 T    3256 GCA    -0.6000 ****
9768 HC1    48.153000   47.806000   -1.177000 H    3256 GCA     0.4000 ****
9769 TC2    49.473000   68.774000   -1.335000 T    3257 GCA     0.6000 ****
9770 TC1    46.274000   59.300000   -1.301000 T    3257 GCA    -0.6000 ****
9771 HC1    43.075000   49.825000   -1.266000 H    3257 GCA     0.4000 ****
9772 TC2    42.178000   70.815000   -1.459000 T    3258 GCA     0.6000 ****
9773 TC1    39.995000   61.056000   -1.407000 T    3258 GCA    -0.6000 ****
9774 HC1    37.812000   51.297000   -1.356000 H    3258 GCA     0.4000 ****
9775 TC2    34.709000   72.076000   -1.582000 T    3259 GCA     0.6000 ****
9776 TC1    33.566000   62.141000   -1.513000 T    3259 GCA    -0.6000 ****
9777 HC1    32.423000   52.207000   -1.445000 H    3259 GCA     0.4000 ****
9778 TC2    27.148000   72.542000   -1.706000 T    3260 GCA     0.6000 ****
9779 TC1    27.058000   62.543000   -1.620000 T    3260 GCA    -0.6000 ****
9780 HC1    26.969000   52.543000   -1.534000 H    3260 GCA     0.4000 ****
9781 TC2    19.580000   72.209000   -1.829000 T    3261 GCA     0.6000 ****
9782 TC1    20.545000   62.256000   -1.726000 T    3261 GCA    -0.6000 ****
9783 HC1    21.509000   52.303000   -1.623000 H    3261 GCA     0.4000 ****
9784 TC2    12.089000   71.080000   -1.953000 T    3262 GCA     0.6000 ****
9785 TC1    14.097000   61.284000   -1.832000 T    3262 GCA    -0.6000 ****
9786 HC1    16.105000   51.489000   -1.712000 H    3262 GCA     0.4000 ****
9787 TC2     4.759000   69.168000   -2.076000 T    3263 GCA     0.6000 ****
9788 TC1     7.788000   59.639000   -1.938000 T    3263 GCA    -0.6000 ****
9789 HC1    10.817000   50.109000   -1.801000 H    3263 GCA     0.4000 ****
9790 TC2    -2.328000   66.494000   -2.199000 T    3264 GCA     0.6000 ****
9791 TC1     1.688000   57.337000   -2.045000 T    3264 GCA    -0.6000 ****
9792 HC1     5.704000   48.180000   -1.890000 H    3264 GCA     0.4000 ****
9793 TC2    -9.094000   63.088000   -2.323000 T    3265 GCA     0.6000 ****
9794 TC1    -4.136000   54.405000   -2.151000 T    3265 GCA    -0.6000 ****
9795 HC1     0.823000   45.723000   -1.979000 H    3265 GCA     0.4000 ****
9796 TC2   -15.463000   58.987000   -2.446000 T    3266 GCA     0.6000 ****
9797 TC1    -9.618000   50.876000   -2.257000 T    3266 GCA    -0.6000 ****
9798 HC1    -3.772000   42.765000   -2.068000 H    3266 GCA     0.4000 ****
9799 TC2   -21.365000   54.238000   -2.570000 T    3267 GCA     0.6000 ****
9800 TC1   -14.697000   46.788000   -2.363000 T    3267 GCA    -0.6000 ****
9801 HC1    -8.030000   39.339000   -2.157000 H    3267 GCA     0.4000 ****
9802 TC2   -26.733000   48.893000   -2.693000 T    3268 GCA     0.6000 ****
9803 TC1   -19.318000   42.188000   -2.470000 T    3268 GCA    -0.6000 ****
9804 HC1   -11.902000   35.483000   -2.246000 H    3268 GCA     0.4000 ****
9805 TC2   -31.508000   43.013000   -2.817000 T    3269 GCA     0.6000 ****
9806 TC1   -23.427000   37.127000   -2.576000 T    3269 GCA    -0.6000 ****
9807 HC1   -15.347000   31.240000   -2.335000 H    3269 GCA     0.4000 ****
9808 TC2   -35.636000   36.661000   -2.940000 T    3270 GCA     0.6000 ****
9809 TC1   -26.981000   31.660000   -2.682000 T    3270 GCA    -0.6000 ****
9810 HC1   -18.325000   26.658000   -2.424000 H    3270 GCA     0.4000 ****
9811 TC2   -39.072000   29.910000   -3.064000 T    3271 GCA     0.6000 ****
9812 TC1   -29.938000   25.849000   -2.789000 T    3271 GCA    -0.6000 ****
9813 HC1   -20.804000   21.788000   -2.513000 H    3271 GCA     0.4000 ****
9814 TC2   -41.776000   22.834000   -3.187000 T    3272 GCA     0.6000 ****
9815 TC1   -32.266000   19.759000   -2.895000 T    3272 GCA    -0.6000 ****
9816 HC1   -22.755000   16.683000   -2.602000 H    3272 GCA     0.4000 ****
9817 TC2   -43.720000   15.513000   -3.311000 T    3273 GCA     0.6000 ****
9818 TC1   -33.938000   13.457000   -3.001000 T    3273 GCA    -0.6000 ****
9819 HC1   -24.157000   11.401000   -2.692000 H    3273 GCA     0.4000 ****
9820 TC2   -44.881000    8.027000   -3.434000 T    3274 GCA     0.6000 ****
9821 TC1   -34.937000    7.014000   -3.107000 T    3274 GCA    -0.6000 ****
9822 HC1   -24.994000    6.001000   -2.781000 H    3274 GCA     0.4000 ****
9823 TC2   -45.245000    0.461000   -3.558000 T    3275 GCA     0.6000 ****
9824 TC1   -35.251000    0.502000   -3.214000 T    3275 GCA    -0.6000 ****
9825 HC1   -25.257000    0.543000   -2.870000 H    3275 GCA     0.4000 ****
9826 TC2   -44.810000   -7.101000   -3.681000 T    3276 GCA     0.6000 ****
9827 TC1   -34.877000   -6.007000   -3.320000 T    3276 GCA    -0.6000 ****
9828 HC1   -24.943000   -4.913000   -2.959000 H    3276 GCA     0.4000 ****
9829 TC2   -43.580000  -14.576000   -3.804000 T    3277 GCA     0.6000 ****
9830 TC1   -33.818000  -12.441000   -3.426000 T    3277 GCA    -0.6000 ****
9831 HC1   -24.056000  -10.305000   -3.048000 H    3277 GCA     0.4000 ****
9832 TC2   -41.568000  -21.879000   -3.928000 T    3278 GCA     0.6000 ****
9833 TC1   -32.087000  -18.726000   -3.532000 T    3278 GCA    -0.6000 ****
9834 HC1   -22.605000  -15.574000   -3.137000 H    3278 GCA     0.4000 ****
9835 TC2   -38.798000  -28.929000   -4.051000 T    3279 GCA     0.6000 ****
9836 TC1   -29.702000  -24.794000   -3.639000 T    3279 GCA    -0.6000 ****
9837 HC1   -20.606000  -20.660000   -3.226000 H    3279 GCA     0.4000 ****
9838 TC2   -35.299000  -35.647000   -4.175000 T    3280 GCA     0.6000 ****
9839 TC1   -26.690000  -30.577000   -3.745000 T    3280 GCA    -0.6000 ****
9840 HC1   -18.082000  -25.507000   -3.315000 H    3280 GCA     0.4000 ****
9841 TC2   -31.111000  -41.959000   -4.298000 T    3281 GCA     0.6000 ****
9842 TC1   -23.086000  -36.010000   -3.851000 T    3281 GCA    -0.6000 ****
9843 HC1   -15.060000  -30.060000   -3.404000 H    3281 GCA     0.4000 ****
9844 TC2   -26.280000  -47.794000   -4.422000 T    3282 GCA     0.6000 ****
9845 TC1   -18.928000  -41.032000   -3.957000 T    3282 GCA    -0.6000 ****
9846 HC1   -11.575000  -34.270000   -3.493000 H    3282 GCA     0.4000 ****
9847 TC2   -20.861000  -53.087000   -4.545000 T    3283 GCA     0.6000 ****
9848 TC1   -14.263000  -45.587000   -4.064000 T    3283 GCA    -0.6000 ****
9849 HC1    -7.666000  -38.088000   -3.582000 H    3283 GCA     0.4000 ****
9850 TC2   -14.914000  -57.778000   -4.669000 T    3284 GCA     0.6000 ****
9851 TC1    -9.144000  -49.625000   -4.170000 T    3284 GCA    -0.6000 ****
9852 HC1    -3.375000  -41.472000   -3.671000 H    3284 GCA     0.4000 ****
9853 TC2    -8.504000  -61.815000   -4.792000 T    3285 GCA     0.6000 ****
9854 TC1    -3.628000  -53.100000   -4.276000 T    3285 GCA    -0.6000 ****
9855 HC1     1.248000  -44.385000   -3.760000 H    3285 GCA     0.4000 ****
9856 TC2    -1.705000  -65.154000   -4.916000 T    3286 GCA     0.6000 ****
9857 TC1     2.224000  -55.974000   -4.383000 T    3286 GCA    -0.6000 ****
9858 HC1     6.154000  -46.794000   -3.849000 H    3286 GCA     0.4000 ****
9859 TC2     5.409000  -67.756000   -5.039000 T    3287 GCA     0.6000 ****
9860 TC1     8.347000  -58.214000   -4.489000 T    3287 GCA    -0.6000 ****
9861 HC1    11.286000  -48.671000   -3.939000 H    3287 GCA     0.4000 ****
9862 TC2    12.758000  -69.593000   -5.163000 T    3288 GCA     0.6000 ****
9863 TC1    14.673000  -59.795000   -4.595000 T    3288 GCA    -0.6000 ****
9864 HC1    16.587000  -49.996000   -4.028000 H    3288 GCA     0.4000 ****
9865 TC2    20.259000  -70.644000   -5.286000 T    3289 GCA     0.6000 ****
9866 TC1    21.129000  -60.699000   -4.701000 T    3289 GCA    -0.6000 ****
9867 HC1    21.999000  -50.754000   -4.117000 H    3289 GCA     0.4000 ****
9868 TC2    27.830000  -70.897000   -5.409000 T    3290 GCA     0.6000 ****
9869 TC1    27.645000  -60.917000   -4.808000 T    3290 GCA    -0.6000 ****
9870 HC1    27.461000  -50.937000   -4.206000 H    3290 GCA     0.4000 ****
9871 TC2    35.385000  -70.350000   -5.533000 T    3291 GCA     0.6000 ****
9872 TC1    34.148000  -60.446000   -4.914000 T    3291 GCA    -0.6000 ****
9873 HC1    32.911000  -50.542000   -4.295000 H    3291 GCA     0.4000 ****
9874 TC2    42.840000  -69.007000   -5.656000 T    3292 GCA     0.6000 ****
9875 TC1    40.565000  -59.290000   -5.020000 T    3292 GCA    -0.6000 ****
9876 HC1    38.289000  -49.573000   -4.384000 H    3292 GCA     0.4000 ****
9877 TC2    50.111000  -66.885000   -5.780000 T    3293 GCA     0.6000 ****
9878 TC1    46.823000  -57.464000   -5.126000 T    3293 GCA    -0.6000 ****
9879 HC1    43.535000  -48.042000   -4.473000 H    3293 GCA     0.4000 ****
9880 TC2    57.118000  -64.007000   -5.903000 T    3294 GCA     0.6000 ****
9881 TC1    52.854000  -54.987000   -5.233000 T    3294 GCA    -0.6000 ****
9882 HC1    48.590000  -45.966000   -4.562000 H    3294 GCA     0.4000 ****
9883 TC2    63.781000  -60.405000   -6.027000 T    3295 GCA     0.6000 ****
9884 TC1    58.589000  -51.886000   -5.339000 T    3295 GCA    -0.6000 ****
9885 HC1    53.397000  -43.367000   -4.651000 H    3295 GCA     0.4000 ****
9886 TC2    70.027000  -56.119000   -6.150000 T    3296 GCA     0.6000 ****
9887 TC1    63.965000  -48.197000   -5.445000 T    3296 GCA    -0.6000 ****
9888 HC1    57.903000  -40.275000   -4.740000 H    3296 GCA     0.4000 ****
9889 TC2    75.785000  -51.197000   -6.274000 T    3297 GCA     0.6000 ****
9890 TC1    68.921000  -43.961000   -5.551000 T    3297 GCA    -0.6000 ****
9891 HC1    62.057000  -36.725000   -4.829000 H    3297 GCA     0.4000 ****
9892 TC2    80.991000  -45.695000   -6.397000 T    3298 GCA     0.6000 ****
9893 TC1    73.401000  -39.225000   -5.658000 T    3298 GCA    -0.6000 ****
9894 HC1    65.812000  -32.755000   -4.918000 H    3298 GCA     0.4000 ****
9895 TC2    85.585000  -39.673000   -6.521000 T    3299 GCA     0.6000 ****
9896 TC1    77.356000  -34.042000   -5.764000 T    3299 GCA    -0.6000 ****
9897 HC1    69.127000  -28.411000   -5.007000 H    3299 GCA     0.4000 ****
9898 TC2    89.518000  -33.199000   -6.644000 T    3300 GCA     0.6000 ****
9899 TC1    80.741000  -28.470000   -5.870000 T    3300 GCA    -0.6000 ****
9900 HC1    71.964000  -23.740000   -5.096000 H    3300 GCA     0.4000 ****
9901 TC2    92.745000  -26.346000   -6.768000 T    3301 GCA     0.6000 ****
9902 TC1    83.518000  -22.571000   -5.977000 T    3301 GCA    -0.6000 ****
9903 HC1    74.292000  -18.796000   -5.185000 H    3301 GCA     0.4000 ****
9904 TC2    95.228000  -19.190000   -6.891000 T    3302 GCA     0.6000 ****
9905 TC1    85.656000  -16.412000   -6.083000 T    3302 GCA    -0.6000 ****
9906 HC1    76.084000  -13.634000   -5.275000 H    3302 GCA     0.4000 ****
9907 TC2    96.942000  -11.811000   -7.015000 T    3303 GCA     0.6000 ****
9908 TC1    87.131000  -10.061000   -6.189000 T    3303 GCA    -0.6000 ****
9909 HC1    77.320000   -8.311000   -5.364000 H    3303 GCA     0.4000 ****
9910 TC2    97.865000   -4.293000   -7.138000 T    3304 GCA     0.6000 ****
9911 TC1    87.925000   -3.590000   -6.295000 T    3304 GCA    -0.6000 ****
9912 HC1    77.986000   -2.887000   -5.453000 H    3304 GCA     0.4000 ****
9913 TC2    97.988000    3.280000   -7.261000 T    3305 GCA     0.6000 ****
9914 TC1    88.031000    2.929000   -6.402000 T    3305 GCA    -0.6000 ****
9915 HC1    78.075000    2.577000   -5.542000 H    3305 GCA     0.4000 ****
9916 TC2    97.309000   10.825000   -7.385000 T    3306 GCA     0.6000 ****
9917 TC1    87.447000    9.422000   -6.508000 T    3306 GCA    -0.6000 ****
9918 HC1    77.585000    8.019000   -5.631000 H    3306 GCA     0.4000 ****
9919 TC2    95.836000   18.255000   -7.508000 T    3307 GCA     0.6000 ****
9920 TC1    86.179000   15.817000   -6.614000 T    3307 GCA    -0.6000 ****
9921 HC1    76.522000   13.379000   -5.720000 H    3307 GCA     0.4000 ****
9922 TC2    93.585000   25.487000   -7.632000 T    3308 GCA     0.6000 ****
9923 TC1    84.242000   22.042000   -6.720000 T    3308 GCA    -0.6000 ****
9924 HC1    74.898000   18.597000   -5.809000 H    3308 GCA     0.4000 ****
9925 TC2    90.582000   32.441000   -7.755000 T    3309 GCA     0.6000 ****
9926 TC1    81.657000   28.027000   -6.827000 T    3309 GCA    -0.6000 ****
9927 HC1    72.731000   23.614000   -5.898000 H    3309 GCA     0.4000 ****
9928 TC2    86.859000   39.037000   -7.879000 T    3310 GCA     0.6000 ****
9929 TC1    78.452000   33.705000   -6.933000 T    3310 GCA    -0.6000 ****
9930 HC1    70.046000   28.372000   -5.987000 H    3310 GCA     0.4000 ****
9931 TC2    82.459000   45.203000   -8.002000 T    3311 GCA     0.6000 ****
9932 TC1    74.665000   39.012000   -7.039000 T    3311 GCA    -0.6000 ****
9933 HC1    66.871000   32.820000   -6.076000 H    3311 GCA     0.4000 ****
9934 TC2    77.430000   50.868000   -8.126000 T    3312 GCA     0.6000 ****
9935 TC1    70.337000   43.887000   -7.145000 T    3312 GCA    -0.6000 ****
9936 HC1    63.244000   36.907000   -6.165000 H    3312 GCA     0.4000 ****
9937 TC2    71.831000   55.968000   -8.249000 T    3313 GCA     0.6000 ****
9938 TC1    65.517000   48.278000   -7.252000 T    3313 GCA    -0.6000 ****
9939 HC1    59.204000   40.587000   -6.254000 H    3313 GCA     0.4000 ****
9940 TC2    65.722000   60.447000   -8.373000 T    3314 GCA     0.6000 ****
9941 TC1    60.260000   52.133000   -7.358000 T    3314 GCA    -0.6000 ****
9942 HC1    54.797000   43.818000   -6.343000 H    3314 GCA     0.4000 ****
9943 TC2    59.174000   64.254000   -8.496000 T    3315 GCA     0.6000 ****
9944 TC1    54.623000   55.409000   -7.464000 T    3315 GCA    -0.6000 ****
9945 HC1    50.073000   46.564000   -6.432000 H    3315 GCA     0.4000 ****
9946 TC2    52.259000   67.345000   -8.620000 T    3316 GCA     0.6000 ****
9947 TC1    48.671000   58.070000   -7.571000 T    3316 GCA    -0.6000 ****
9948 HC1    45.084000   48.794000   -6.522000 H    3316 GCA     0.4000 ****
9949 TC2    45.055000   69.686000   -8.743000 T    3317 GCA     0.6000 ****
9950 TC1    42.471000   60.085000   -7.677000 T    3317 GCA    -0.6000 ****
9951 HC1    39.887000   50.483000   -6.611000 H    3317 GCA     0.4000 ****
9952 TC2    37.644000   71.250000   -8.866000 T    3318 GCA     0.6000 ****
9953 TC1    36.092000   61.431000   -7.783000 T    3318 GCA    -0.6000 ****
9954 HC1    34.541000   51.612000   -6.700000 H    3318 GCA     0.4000 ****
9955 TC2    30.108000   72.020000   -8.990000 T    3319 GCA     0.6000 ****
9956 TC1    29.607000   62.094000   -7.889000 T    3319 GCA    -0.6000 ****
9957 HC1    29.105000   52.167000   -6.789000 H    3319 GCA     0.4000 ****
9958 TC2    22.534000   71.987000   -9.113000 T    3320 GCA     0.6000 ****
9959 TC1    23.087000   62.065000   -7.996000 T    3320 GCA    -0.6000 ****
9960 HC1    23.640000   52.143000   -6.878000 H    3320 GCA     0.4000 ****
9961 TC2    15.006000   71.151000   -9.237000 T    3321 GCA     0.6000 ****
9962 TC1    16.608000   61.345000   -8.102000 T    3321 GCA    -0.6000 ****
9963 HC1    18.209000   51.540000   -6.967000 H    3321 GCA     0.4000 ****
9964 TC2     7.609000   69.520000   -9.360000 T    3322 GCA     0.6000 ****
9965 TC1    10.241000   59.942000   -8.208000 T    3322 GCA    -0.6000 ****
9966 HC1    12.873000   50.364000   -7.056000 H    3322 GCA     0.4000 ****
9967 TC2     0.427000   67.115000   -9.484000 T    3323 GCA     0.6000 ****
9968 TC1     4.059000   57.871000   -8.314000 T    3323 GCA    -0.6000 ****
9969 HC1     7.692000   48.628000   -7.145000 H    3323 GCA     0.4000 ****
9970 TC2    -6.460000   63.960000   -9.607000 T    3324 GCA     0.6000 ****
9971 TC1    -1.868000   55.156000   -8.421000 T    3324 GCA    -0.6000 ****
9972 HC1     2.723000   46.353000   -7.234000 H    3324 GCA     0.4000 ****
9973 TC2   -12.972000   60.093000   -9.731000 T    3325 GCA     0.6000 ****
9974 TC1    -7.474000   51.828000   -8.527000 T    3325 GCA    -0.6000 ****
9975 HC1    -1.975000   43.563000   -7.323000 H    3325 GCA     0.4000 ****
9976 TC2   -19.038000   55.556000   -9.854000 T    3326 GCA     0.6000 ****
9977 TC1   -12.694000   47.923000   -8.633000 T    3326 GCA    -0.6000 ****
9978 HC1    -6.351000   40.290000   -7.412000 H    3326 GCA     0.4000 ****
9979 TC2   -24.587000   50.401000   -9.978000 T    3327 GCA     0.6000 ****
9980 TC1   -17.471000   43.486000   -8.739000 T    3327 GCA    -0.6000 ****
9981 HC1   -10.354000   36.571000   -7.501000 H    3327 GCA     0.4000 ****
9982 TC2   -29.558000   44.686000  -10.101000 T    3328 GCA     0.6000 ****
9983 TC1   -21.749000   38.567000   -8.846000 T    3328 GCA    -0.6000 ****
9984 HC1   -13.940000   32.448000   -7.590000 H    3328 GCA     0.4000 ****
9985 TC2   -33.893000   38.475000  -10.225000 T    3329 GCA     0.6000 ****
9986 TC1   -25.480000   33.221000   -8.952000 T    3329 GCA    -0.6000 ****
9987 HC1   -17.068000   27.967000   -7.679000 H    3329 GCA     0.4000 ****
9988 TC2   -37.544000   31.839000  -10.348000 T    3330 GCA     0.6000 ****
9989 TC1   -28.623000   27.509000   -9.058000 T    3330 GCA    -0.6000 ****
9990 HC1   -19.702000   23.179000   -7.768000 H    3330 GCA     0.4000 ****
9991 TC2   -40.469000   24.852000  -10.471000 T    3331 GCA     0.6000 ****
9992 TC1   -31.140000   21.495000   -9.165000 T    3331 GCA    -0.6000 ****
9993 HC1   -21.812000   18.139000   -7.858000 H    3331 GCA     0.4000 ****
9994 TC2   -42.635000   17.594000  -10.595000 T    3332 GCA     0.6000 ****
9995 TC1   -33.005000   15.248000   -9.271000 T    3332 GCA    -0.6000 ****
9996 HC1   -23.374000   12.903000   -7.947000 H    3332 GCA     0.4000 ****
9997 TC2   -44.017000   10.147000  -10.718000 T    3333 GCA     0.6000 ****
9998 TC1   -34.194000    8.838000   -9.377000 T    3333 GCA    -0.6000 ****
9999 HC1   -24.371000    7.530000   -8.036000 H    3333 GCA     0.4000 ****
10000 TC2   -44.599000    2.595000  -10.842000 T    3334 GCA     0.6000 ****
10001 TC1   -34.695000    2.338000   -9.483000 T    3334 GCA    -0.6000 ****
10002 HC1   -24.791000    2.082000   -8.125000 H    3334 GCA     0.4000 ****
10003 TC2   -44.375000   -4.976000  -10.965000 T    3335 GCA     0.6000 ****
10004 TC1   -34.502000   -4.178000   -9.590000 T    3335 GCA    -0.6000 ****
10005 HC1   -24.629000   -3.380000   -8.214000 H    3335 GCA     0.4000 ****
10006 TC2   -43.346000  -12.480000  -11.089000 T    3336 GCA     0.6000 ****
10007 TC1   -33.616000  -10.637000   -9.696000 T    3336 GCA    -0.6000 ****
10008 HC1   -23.887000   -8.794000   -8.303000 H    3336 GCA     0.4000 ****
10009 TC2   -41.524000  -19.832000  -11.212000 T    3337 GCA     0.6000 ****
10010 TC1   -32.049000  -16.965000   -9.802000 T    3337 GCA    -0.6000 ****
10011 HC1   -22.573000  -14.097000   -8.392000 H    3337 GCA     0.4000 ****
10012 TC2   -38.931000  -26.949000  -11.336000 T    3338 GCA     0.6000 ****
10013 TC1   -29.816000  -23.090000   -9.908000 T    3338 GCA    -0.6000 ****
10014 HC1   -20.702000  -19.231000   -8.481000 H    3338 GCA     0.4000 ****
10015 TC2   -35.594000  -33.748000  -11.459000 T    3339 GCA     0.6000 ****
10016 TC1   -26.945000  -28.943000  -10.015000 T    3339 GCA    -0.6000 ****
10017 HC1   -18.295000  -24.137000   -8.570000 H    3339 GCA     0.4000 ****
10018 TC2   -31.553000  -40.154000  -11.583000 T    3340 GCA     0.6000 ****
10019 TC1   -23.466000  -34.456000  -10.121000 T    3340 GCA    -0.6000 ****
10020 HC1   -15.379000  -28.758000   -8.659000 H    3340 GCA     0.4000 ****
10021 TC2   -26.852000  -46.093000  -11.706000 T    3341 GCA     0.6000 ****
10022 TC1   -19.420000  -39.568000  -10.227000 T    3341 GCA    -0.6000 ****
10023 HC1   -11.988000  -33.042000   -8.748000 H    3341 GCA     0.4000 ****
10024 TC2   -21.545000  -51.497000  -11.830000 T    3342 GCA     0.6000 ****
10025 TC1   -14.852000  -44.219000  -10.333000 T    3342 GCA    -0.6000 ****
10026 HC1    -8.159000  -36.941000   -8.837000 H    3342 GCA     0.4000 ****
10027 TC2   -15.692000  -56.305000  -11.953000 T    3343 GCA     0.6000 ****
10028 TC1    -9.814000  -48.357000  -10.440000 T    3343 GCA    -0.6000 ****
10029 HC1    -3.937000  -40.409000   -8.926000 H    3343 GCA     0.4000 ****
10030 TC2    -9.360000  -60.461000  -12.076000 T    3344 GCA     0.6000 ****
10031 TC1    -4.364000  -51.934000  -10.546000 T    3344 GCA    -0.6000 ****
10032 HC1     0.631000  -43.408000   -9.015000 H    3344 GCA     0.4000 ****
10033 TC2    -2.621000  -63.918000  -12.200000 T    3345 GCA     0.6000 ****
10034 TC1     1.436000  -54.910000  -10.652000 T    3345 GCA    -0.6000 ****
10035 HC1     5.493000  -45.902000   -9.105000 H    3345 GCA     0.4000 ****
10036 TC2     4.448000  -66.637000  -12.323000 T    3346 GCA     0.6000 ****
10037 TC1     7.521000  -57.250000  -10.758000 T    3346 GCA    -0.6000 ****
10038 HC1    10.593000  -47.864000   -9.194000 H    3346 GCA     0.4000 ****
10039 TC2    11.767000  -68.586000  -12.447000 T    3347 GCA     0.6000 ****
10040 TC1    13.820000  -58.928000  -10.865000 T    3347 GCA    -0.6000 ****
10041 HC1    15.873000  -49.270000   -9.283000 H    3347 GCA     0.4000 ****
10042 TC2    19.253000  -69.743000  -12.570000 T    3348 GCA     0.6000 ****
10043 TC1    20.263000  -59.924000  -10.971000 T    3348 GCA    -0.6000 ****
10044 HC1    21.273000  -50.104000   -9.372000 H    3348 GCA     0.4000 ****
10045 TC2    26.819000  -70.095000  -12.694000 T    3349 GCA     0.6000 ****
10046 TC1    26.775000  -60.226000  -11.077000 T    3349 GCA    -0.6000 ****
10047 HC1    26.731000  -50.358000   -9.461000 H    3349 GCA     0.4000 ****
10048 TC2    34.379000  -69.636000  -12.817000 T    3350 GCA     0.6000 ****
10049 TC1    33.282000  -59.832000  -11.184000 T    3350 GCA    -0.6000 ****
10050 HC1    32.185000  -50.027000   -9.550000 H    3350 GCA     0.4000 ****
10051 TC2    41.847000  -68.373000  -12.941000 T    3351 GCA     0.6000 ****
10052 TC1    39.710000  -58.744000  -11.290000 T    3351 GCA    -0.6000 ****
10053 HC1    37.573000  -49.115000   -9.639000 H    3351 GCA     0.4000 ****
10054 TC2    49.137000  -66.318000  -13.064000 T    3352 GCA     0.6000 ****
10055 TC1    45.984000  -56.976000  -11.396000 T    3352 GCA    -0.6000 ****
10056 HC1    42.832000  -47.634000   -9.728000 H    3352 GCA     0.4000 ****
10057 TC2    56.166000  -63.497000  -13.188000 T    3353 GCA     0.6000 ****
10058 TC1    52.034000  -54.547000  -11.502000 T    3353 GCA    -0.6000 ****
10059 HC1    47.903000  -45.598000   -9.817000 H    3353 GCA     0.4000 ****
10060 TC2    62.853000  -59.940000  -13.311000 T    3354 GCA     0.6000 ****
10061 TC1    57.790000  -51.486000  -11.609000 T    3354 GCA    -0.6000 ****
10062 HC1    52.727000  -43.032000   -9.906000 H    3354 GCA     0.4000 ****
10063 TC2    69.121000  -55.689000  -13.435000 T    3355 GCA     0.6000 ****
10064 TC1    63.185000  -47.827000  -11.715000 T    3355 GCA    -0.6000 ****
10065 HC1    57.249000  -39.965000   -9.995000 H    3355 GCA     0.4000 ****
10066 TC2    74.898000  -50.791000  -13.558000 T    3356 GCA     0.6000 ****
10067 TC1    68.158000  -43.612000  -11.821000 T    3356 GCA    -0.6000 ****
10068 HC1    61.417000  -36.432000  -10.084000 H    3356 GCA     0.4000 ****
10069 TC2    80.119000  -45.304000  -13.681000 T    3357 GCA     0.6000 ****
10070 TC1    72.651000  -38.888000  -11.927000 T    3357 GCA    -0.6000 ****
10071 HC1    65.183000  -32.473000  -10.173000 H    3357 GCA     0.4000 ****
10072 TC2    84.722000  -39.289000  -13.805000 T    3358 GCA     0.6000 ****
10073 TC1    76.613000  -33.711000  -12.034000 T    3358 GCA    -0.6000 ****
10074 HC1    68.504000  -28.134000  -10.262000 H    3358 GCA     0.4000 ****
10075 TC2    88.654000  -32.816000  -13.928000 T    3359 GCA     0.6000 ****
10076 TC1    79.998000  -28.140000  -12.140000 T    3359 GCA    -0.6000 ****
10077 HC1    71.341000  -23.464000  -10.351000 H    3359 GCA     0.4000 ****
10078 TC2    91.871000  -25.959000  -14.052000 T    3360 GCA     0.6000 ****
10079 TC1    82.766000  -22.238000  -12.246000 T    3360 GCA    -0.6000 ****
10080 HC1    73.661000  -18.517000  -10.441000 H    3360 GCA     0.4000 ****
10081 TC2    94.334000  -18.797000  -14.175000 T    3361 GCA     0.6000 ****
10082 TC1    84.887000  -16.074000  -12.352000 T    3361 GCA    -0.6000 ****
10083 HC1    75.439000  -13.350000  -10.530000 H    3361 GCA     0.4000 ****
10084 TC2    96.016000  -11.412000  -14.299000 T    3362 GCA     0.6000 ****
10085 TC1    86.334000   -9.717000  -12.459000 T    3362 GCA    -0.6000 ****
10086 HC1    76.652000   -8.023000  -10.619000 H    3362 GCA     0.4000 ****
10087 TC2    96.897000   -3.889000  -14.422000 T    3363 GCA     0.6000 ****
10088 TC1    87.092000   -3.243000  -12.565000 T    3363 GCA    -0.6000 ****
10089 HC1    77.287000   -2.596000  -10.708000 H    3363 GCA     0.4000 ****
10090 TC2    96.965000    3.684000  -14.546000 T    3364 GCA     0.6000 ****
10091 TC1    87.151000    3.276000  -12.671000 T    3364 GCA    -0.6000 ****
10092 HC1    77.337000    2.868000  -10.797000 H    3364 GCA     0.4000 ****
10093 TC2    96.221000   11.222000  -14.669000 T    3365 GCA     0.6000 ****
10094 TC1    86.510000    9.763000  -12.778000 T    3365 GCA    -0.6000 ****
10095 HC1    76.800000    8.305000  -10.886000 H    3365 GCA     0.4000 ****
10096 TC2    94.672000   18.635000  -14.793000 T    3366 GCA     0.6000 ****
10097 TC1    85.177000   16.145000  -12.884000 T    3366 GCA    -0.6000 ****
10098 HC1    75.682000   13.654000  -10.975000 H    3366 GCA     0.4000 ****
10099 TC2    92.337000   25.840000  -14.916000 T    3367 GCA     0.6000 ****
10100 TC1    83.167000   22.346000  -12.990000 T    3367 GCA    -0.6000 ****
10101 HC1    73.997000   18.852000  -11.064000 H    3367 GCA     0.4000 ****
10102 TC2    89.241000   32.752000  -15.040000 T    3368 GCA     0.6000 ****
10103 TC1    80.502000   28.295000  -13.096000 T    3368 GCA    -0.6000 ****
10104 HC1    71.764000   23.838000  -11.153000 H    3368 GCA     0.4000 ****
10105 TC2    85.421000   39.292000  -15.163000 T    3369 GCA     0.6000 ****
10106 TC1    77.214000   33.924000  -13.203000 T    3369 GCA    -0.6000 ****
10107 HC1    69.008000   28.556000  -11.242000 H    3369 GCA     0.4000 ****
10108 TC2    80.920000   45.383000  -15.287000 T    3370 GCA     0.6000 ****
10109 TC1    73.340000   39.167000  -13.309000 T    3370 GCA    -0.6000 ****
10110 HC1    65.761000   32.951000  -11.331000 H    3370 GCA     0.4000 ****
10111 TC2    75.790000   50.956000  -15.410000 T    3371 GCA     0.6000 ****
10112 TC1    68.925000   43.963000  -13.415000 T    3371 GCA    -0.6000 ****
10113 HC1    62.060000   36.971000  -11.420000 H    3371 GCA     0.4000 ****
10114 TC2    70.091000   55.944000  -15.533000 T    3372 GCA     0.6000 ****
10115 TC1    64.020000   48.256000  -13.521000 T    3372 GCA    -0.6000 ****
10116 HC1    57.949000   40.569000  -11.509000 H    3372 GCA     0.4000 ****
10117 TC2    63.888000   60.290000  -15.657000 T    3373 GCA     0.6000 ****
10118 TC1    58.681000   51.997000  -13.628000 T    3373 GCA    -0.6000 ****
10119 HC1    53.474000   43.705000  -11.598000 H    3373 GCA     0.4000 ****
10120 TC2    57.254000   63.944000  -15.780000 T    3374 GCA     0.6000 ****
10121 TC1    52.971000   55.142000  -13.734000 T    3374 GCA    -0.6000 ****
10122 HC1    48.688000   46.341000  -11.687000 H    3374 GCA     0.4000 ****
10123 TC2    50.265000   66.862000  -15.904000 T    3375 GCA     0.6000 ****
10124 TC1    46.956000   57.654000  -13.840000 T    3375 GCA    -0.6000 ****
10125 HC1    43.646000   48.446000  -11.777000 H    3375 GCA     0.4000 ****
10126 TC2    43.003000   69.011000  -16.027000 T    3376 GCA     0.6000 ****
10127 TC1    40.705000   59.503000  -13.946000 T    3376 GCA    -0.6000 ****
10128 HC1    38.407000   49.996000  -11.866000 H    3376 GCA     0.4000 ****
10129 TC2    35.551000   70.364000  -16.151000 T    3377 GCA     0.6000 ****
10130 TC1    34.291000   60.668000  -14.053000 T    3377 GCA    -0.6000 ****
10131 HC1    33.031000   50.972000  -11.955000 H    3377 GCA     0.4000 ****
10132 TC2    27.997000   70.907000  -16.274000 T    3378 GCA     0.6000 ****
10133 TC1    27.789000   61.136000  -14.159000 T    3378 GCA    -0.6000 ****
10134 HC1    27.581000   51.364000  -12.044000 H    3378 GCA     0.4000 ****
10135 TC2    20.428000   70.632000  -16.398000 T    3379 GCA     0.6000 ****
10136 TC1    21.275000   60.899000  -14.265000 T    3379 GCA    -0.6000 ****
10137 HC1    22.121000   51.166000  -12.133000 H    3379 GCA     0.4000 ****
10138 TC2    12.933000   69.543000  -16.521000 T    3380 GCA     0.6000 ****
10139 TC1    14.824000   59.962000  -14.372000 T    3380 GCA    -0.6000 ****
10140 HC1    16.714000   50.380000  -12.222000 H    3380 GCA     0.4000 ****
10141 TC2     5.600000   67.651000  -16.645000 T    3381 GCA     0.6000 ****
10142 TC1     8.511000   58.333000  -14.478000 T    3381 GCA    -0.6000 ****
10143 HC1    11.423000   49.015000  -12.311000 H    3381 GCA     0.4000 ****
10144 TC2    -1.487000   64.979000  -16.768000 T    3382 GCA     0.6000 ****
10145 TC1     2.412000   56.033000  -14.584000 T    3382 GCA    -0.6000 ****
10146 HC1     6.311000   47.088000  -12.400000 H    3382 GCA     0.4000 ****
10147 TC2    -8.244000   61.558000  -16.892000 T    3383 GCA     0.6000 ****
10148 TC1    -3.404000   53.088000  -14.690000 T    3383 GCA    -0.6000 ****
10149 HC1     1.437000   44.619000  -12.489000 H    3383 GCA     0.4000 ****
10150 TC2   -14.591000   57.426000  -17.015000 T    3384 GCA     0.6000 ****
10151 TC1    -8.867000   49.532000  -14.797000 T    3384 GCA    -0.6000 ****
10152 HC1    -3.143000   41.639000  -12.578000 H    3384 GCA     0.4000 ****
10153 TC2   -20.455000   52.633000  -17.138000 T    3385 GCA     0.6000 ****
10154 TC1   -13.914000   45.407000  -14.903000 T    3385 GCA    -0.6000 ****
10155 HC1    -7.373000   38.181000  -12.667000 H    3385 GCA     0.4000 ****
10156 TC2   -25.766000   47.234000  -17.262000 T    3386 GCA     0.6000 ****
10157 TC1   -18.486000   40.760000  -15.009000 T    3386 GCA    -0.6000 ****
10158 HC1   -11.205000   34.286000  -12.756000 H    3386 GCA     0.4000 ****
10159 TC2   -30.463000   41.293000  -17.385000 T    3387 GCA     0.6000 ****
10160 TC1   -22.528000   35.646000  -15.115000 T    3387 GCA    -0.6000 ****
10161 HC1   -14.593000   29.999000  -12.845000 H    3387 GCA     0.4000 ****
10162 TC2   -34.489000   34.878000  -17.509000 T    3388 GCA     0.6000 ****
10163 TC1   -25.993000   30.125000  -15.222000 T    3388 GCA    -0.6000 ****
10164 HC1   -17.497000   25.372000  -12.934000 H    3388 GCA     0.4000 ****
10165 TC2   -37.797000   28.065000  -17.632000 T    3389 GCA     0.6000 ****
10166 TC1   -28.840000   24.261000  -15.328000 T    3389 GCA    -0.6000 ****
10167 HC1   -19.884000   20.457000  -13.024000 H    3389 GCA     0.4000 ****
10168 TC2   -40.348000   20.934000  -17.756000 T    3390 GCA     0.6000 ****
10169 TC1   -31.036000   18.123000  -15.434000 T    3390 GCA    -0.6000 ****
10170 HC1   -21.724000   15.312000  -13.113000 H    3390 GCA     0.4000 ****
10171 TC2   -42.111000   13.569000  -17.879000 T    3391 GCA     0.6000 ****
10172 TC1   -32.554000   11.784000  -15.540000 T    3391 GCA    -0.6000 ****
10173 HC1   -22.996000    9.999000  -13.202000 H    3391 GCA     0.4000 ****
10174 TC2   -43.066000    6.055000  -18.003000 T    3392 GCA     0.6000 ****
10175 TC1   -33.375000    5.317000  -15.647000 T    3392 GCA    -0.6000 ****
10176 HC1   -23.685000    4.579000  -13.291000 H    3392 GCA     0.4000 ****
10177 TC2   -43.200000   -1.517000  -18.126000 T    3393 GCA     0.6000 ****
10178 TC1   -33.491000   -1.200000  -15.753000 T    3393 GCA    -0.6000 ****
10179 HC1   -23.782000   -0.884000  -13.380000 H    3393 GCA     0.4000 ****
10180 TC2   -42.513000   -9.059000  -18.250000 T    3394 GCA     0.6000 ****
10181 TC1   -32.900000   -7.692000  -15.859000 T    3394 GCA    -0.6000 ****
10182 HC1   -23.286000   -6.325000  -13.469000 H    3394 GCA     0.4000 ****
10183 TC2   -41.011000  -16.482000  -18.373000 T    3395 GCA     0.6000 ****
10184 TC1   -31.607000  -14.081000  -15.966000 T    3395 GCA    -0.6000 ****
10185 HC1   -22.203000  -11.680000  -13.558000 H    3395 GCA     0.4000 ****
10186 TC2   -38.713000  -23.698000  -18.497000 T    3396 GCA     0.6000 ****
10187 TC1   -29.629000  -20.292000  -16.072000 T    3396 GCA    -0.6000 ****
10188 HC1   -20.545000  -16.886000  -13.647000 H    3396 GCA     0.4000 ****
10189 TC2   -35.644000  -30.622000  -18.620000 T    3397 GCA     0.6000 ****
10190 TC1   -26.987000  -26.252000  -16.178000 T    3397 GCA    -0.6000 ****
10191 HC1   -18.331000  -21.881000  -13.736000 H    3397 GCA     0.4000 ****
10192 TC2   -31.841000  -37.171000  -18.743000 T    3398 GCA     0.6000 ****
10193 TC1   -23.714000  -31.889000  -16.284000 T    3398 GCA    -0.6000 ****
10194 HC1   -15.587000  -26.606000  -13.825000 H    3398 GCA     0.4000 ****
10195 TC2   -27.349000  -43.269000  -18.867000 T    3399 GCA     0.6000 ****
10196 TC1   -19.848000  -37.137000  -16.391000 T    3399 GCA    -0.6000 ****
10197 HC1   -12.346000  -31.005000  -13.914000 H    3399 GCA     0.4000 ****
10198 TC2   -22.220000  -48.841000  -18.990000 T    3400 GCA     0.6000 ****
10199 TC1   -15.433000  -41.933000  -16.497000 T    3400 GCA    -0.6000 ****
10200 HC1    -8.647000  -35.025000  -14.003000 H    3400 GCA     0.4000 ****
10201 TC2   -16.516000  -53.823000  -19.114000 T    3401 GCA     0.6000 ****
10202 TC1   -10.524000  -46.221000  -16.603000 T    3401 GCA    -0.6000 ****
10203 HC1    -4.531000  -38.619000  -14.092000 H    3401 GCA     0.4000 ****
10204 TC2   -10.303000  -58.153000  -19.237000 T    3402 GCA     0.6000 ****
10205 TC1    -5.176000  -49.948000  -16.709000 T    3402 GCA    -0.6000 ****
10206 HC1    -0.049000  -41.743000  -14.181000 H    3402 GCA     0.4000 ****
10207 TC2    -3.656000  -61.782000  -19.361000 T    3403 GCA     0.6000 ****
10208 TC1     0.545000  -53.072000  -16.816000 T    3403 GCA    -0.6000 ****
10209 HC1     4.746000  -44.361000  -14.270000 H    3403 GCA     0.4000 ****
10210 TC2     3.347000  -64.665000  -19.484000 T    3404 GCA     0.6000 ****
10211 TC1     6.573000  -55.553000  -16.922000 T    3404 GCA    -0.6000 ****
10212 HC1     9.799000  -46.441000  -14.360000 H    3404 GCA     0.4000 ****
10213 TC2    10.623000  -66.767000  -19.608000 T    3405 GCA     0.6000 ****
10214 TC1    12.835000  -57.362000  -17.028000 T    3405 GCA    -0.6000 ****
10215 HC1    15.047000  -47.957000  -14.449000 H    3405 GCA     0.4000 ****
10216 TC2    18.085000  -68.064000  -19.731000 T    3406 GCA     0.6000 ****
10217 TC1    19.257000  -58.478000  -17.134000 T    3406 GCA    -0.6000 ****
10218 HC1    20.430000  -48.893000  -14.538000 H    3406 GCA     0.4000 ****
10219 TC2    25.643000  -68.538000  -19.855000 T    3407 GCA     0.6000 ****
10220 TC1    25.763000  -58.887000  -17.241000 T    3407 GCA    -0.6000 ****
10221 HC1    25.883000  -49.235000  -14.627000 H    3407 GCA     0.4000 ****
10222 TC2    33.208000  -68.185000  -19.978000 T    3408 GCA     0.6000 ****
10223 TC1    32.274000  -58.582000  -17.347000 T    3408 GCA    -0.6000 ****
10224 HC1    31.341000  -48.980000  -14.716000 H    3408 GCA     0.4000 ****
10225 TC2    40.689000  -67.008000  -20.102000 T    3409 GCA     0.6000 ****
10226 TC1    38.713000  -57.569000  -17.453000 T    3409 GCA    -0.6000 ****
10227 HC1    36.738000  -48.131000  -14.805000 H    3409 GCA     0.4000 ****
10228 TC2    47.997000  -65.020000  -20.225000 T    3410 GCA     0.6000 ****
10229 TC1    45.003000  -55.858000  -17.559000 T    3410 GCA    -0.6000 ****
10230 HC1    42.010000  -46.697000  -14.894000 H    3410 GCA     0.4000 ****
10231 TC2    55.043000  -62.245000  -20.348000 T    3411 GCA     0.6000 ****
10232 TC1    51.068000  -53.470000  -17.666000 T    3411 GCA    -0.6000 ****
10233 HC1    47.093000  -44.695000  -14.983000 H    3411 GCA     0.4000 ****
10234 TC2    61.744000  -58.717000  -20.472000 T    3412 GCA     0.6000 ****
10235 TC1    56.836000  -50.433000  -17.772000 T    3412 GCA    -0.6000 ****
10236 HC1    51.927000  -42.150000  -15.072000 H    3412 GCA     0.4000 ****
10237 TC2    68.019000  -54.476000  -20.595000 T    3413 GCA     0.6000 ****
10238 TC1    62.236000  -46.783000  -17.878000 T    3413 GCA    -0.6000 ****
10239 HC1    56.454000  -39.091000  -15.161000 H    3413 GCA     0.4000 ****
10240 TC2    73.791000  -49.574000  -20.719000 T    3414 GCA     0.6000 ****
10241 TC1    67.205000  -42.564000  -17.985000 T    3414 GCA    -0.6000 ****
10242 HC1    60.619000  -35.554000  -15.250000 H    3414 GCA     0.4000 ****
10243 TC2    78.992000  -44.070000  -20.842000 T    3415 GCA     0.6000 ****
10244 TC1    71.682000  -37.826000  -18.091000 T    3415 GCA    -0.6000 ****
10245 HC1    64.371000  -31.583000  -15.339000 H    3415 GCA     0.4000 ****
10246 TC2    83.559000  -38.028000  -20.966000 T    3416 GCA     0.6000 ****
10247 TC1    75.612000  -32.626000  -18.197000 T    3416 GCA    -0.6000 ****
10248 HC1    67.665000  -27.224000  -15.428000 H    3416 GCA     0.4000 ****
10249 TC2    87.435000  -31.523000  -21.089000 T    3417 GCA     0.6000 ****
10250 TC1    78.948000  -27.027000  -18.303000 T    3417 GCA    -0.6000 ****
10251 HC1    70.462000  -22.531000  -15.517000 H    3417 GCA     0.4000 ****
10252 TC2    90.575000  -24.631000  -21.213000 T    3418 GCA     0.6000 ****
10253 TC1    81.651000  -21.095000  -18.410000 T    3418 GCA    -0.6000 ****
10254 HC1    72.726000  -17.559000  -15.607000 H    3418 GCA     0.4000 ****
10255 TC2    92.939000  -17.436000  -21.336000 T    3419 GCA     0.6000 ****
10256 TC1    83.685000  -14.903000  -18.516000 T    3419 GCA    -0.6000 ****
10257 HC1    74.432000  -12.369000  -15.696000 H    3419 GCA     0.4000 ****
10258 TC2    94.499000  -10.026000  -21.460000 T    3420 GCA     0.6000 ****
10259 TC1    85.028000   -8.524000  -18.622000 T    3420 GCA    -0.6000 ****
10260 HC1    75.557000   -7.023000  -15.785000 H    3420 GCA     0.4000 ****
10261 TC2    95.235000   -2.489000  -21.583000 T    3421 GCA     0.6000 ****
10262 TC1    85.661000   -2.037000  -18.728000 T    3421 GCA    -0.6000 ****
10263 HC1    76.088000   -1.585000  -15.874000 H    3421 GCA     0.4000 ****
10264 TC2    95.138000    5.084000  -21.707000 T    3422 GCA     0.6000 ****
10265 TC1    85.578000    4.481000  -18.835000 T    3422 GCA    -0.6000 ****
10266 HC1    76.018000    3.878000  -15.963000 H    3422 GCA     0.4000 ****
10267 TC2    94.209000   12.600000  -21.830000 T    3423 GCA     0.6000 ****
10268 TC1    84.778000   10.950000  -18.941000 T    3423 GCA    -0.6000 ****
10269 HC1    75.348000    9.300000  -16.052000 H    3423 GCA     0.4000 ****
10270 TC2    92.458000   19.967000  -21.953000 T    3424 GCA     0.6000 ****
10271 TC1    83.272000   17.291000  -19.047000 T    3424 GCA    -0.6000 ****
10272 HC1    74.085000   14.615000  -16.141000 H    3424 GCA     0.4000 ****
10273 TC2    89.907000   27.098000  -22.077000 T    3425 GCA     0.6000 ****
10274 TC1    81.076000   23.428000  -19.153000 T    3425 GCA    -0.6000 ****
10275 HC1    72.245000   19.759000  -16.230000 H    3425 GCA     0.4000 ****
10276 TC2    86.586000   33.904000  -22.200000 T    3426 GCA     0.6000 ****
10277 TC1    78.217000   29.286000  -19.260000 T    3426 GCA    -0.6000 ****
10278 HC1    69.849000   24.669000  -16.319000 H    3426 GCA     0.4000 ****
10279 TC2    82.535000   40.302000  -22.324000 T    3427 GCA     0.6000 ****
10280 TC1    74.731000   34.793000  -19.366000 T    3427 GCA    -0.6000 ****
10281 HC1    66.926000   29.285000  -16.408000 H    3427 GCA     0.4000 ****
10282 TC2    77.803000   46.214000  -22.447000 T    3428 GCA     0.6000 ****
10283 TC1    70.658000   39.882000  -19.472000 T    3428 GCA    -0.6000 ****
10284 HC1    63.513000   33.550000  -16.497000 H    3428 GCA     0.4000 ****
10285 TC2    72.447000   51.568000  -22.571000 T    3429 GCA     0.6000 ****
10286 TC1    66.048000   44.491000  -19.579000 T    3429 GCA    -0.6000 ****
10287 HC1    59.649000   37.413000  -16.586000 H    3429 GCA     0.4000 ****
10288 TC2    66.534000   56.299000  -22.694000 T    3430 GCA     0.6000 ****
10289 TC1    60.958000   48.562000  -19.685000 T    3430 GCA    -0.6000 ****
10290 HC1    55.383000   40.825000  -16.675000 H    3430 GCA     0.4000 ****
10291 TC2    60.133000   60.347000  -22.818000 T    3431 GCA     0.6000 ****
10292 TC1    55.449000   52.046000  -19.791000 T    3431 GCA    -0.6000 ****
10293 HC1    50.765000   43.745000  -16.764000 H    3431 GCA     0.4000 ****
10294 TC2    53.325000   63.662000  -22.941000 T    3432 GCA     0.6000 ****
10295 TC1    49.589000   54.900000  -19.897000 T    3432 GCA    -0.6000 ****
10296 HC1    45.854000   46.137000  -16.853000 H    3432 GCA     0.4000 ****
10297 TC2    46.192000   66.205000  -23.065000 T    3433 GCA     0.6000 ****
10298 TC1    43.450000   57.088000  -20.004000 T    3433 GCA    -0.6000 ****
10299 HC1    40.708000   47.972000  -16.943000 H    3433 GCA     0.4000 ****
10300 TC2    38.821000   67.942000  -23.188000 T    3434 GCA     0.6000 ****
10301 TC1    37.106000   58.583000  -20.110000 T    3434 GCA    -0.6000 ****
10302 HC1    35.390000   49.225000  -17.032000 H    3434 GCA     0.4000 ****
10303 TC2    31.303000   68.852000  -23.312000 T    3435 GCA     0.6000 ****
10304 TC1    30.635000   59.367000  -20.216000 T    3435 GCA    -0.6000 ****
10305 HC1    29.967000   49.882000  -17.121000 H    3435 GCA     0.4000 ****
10306 TC2    23.731000   68.925000  -23.435000 T    3436 GCA     0.6000 ****
10307 TC1    24.117000   59.429000  -20.322000 T    3436 GCA    -0.6000 ****
10308 HC1    24.504000   49.934000  -17.210000 H    3436 GCA     0.4000 ****
10309 TC2    16.197000   68.157000  -23.559000 T    3437 GCA     0.6000 ****
10310 TC1    17.633000   58.768000  -20.429000 T    3437 GCA    -0.6000 ****
10311 HC1    19.069000   49.380000  -17.299000 H    3437 GCA     0.4000 ****
10312 TC2     8.795000   66.558000  -23.682000 T    3438 GCA     0.6000 ****
10313 TC1    11.262000   57.392000  -20.535000 T    3438 GCA    -0.6000 ****
10314 HC1    13.729000   48.227000  -17.388000 H    3438 GCA     0.4000 ****
10315 TC2     1.616000   64.148000  -23.805000 T    3439 GCA     0.6000 ****
10316 TC1     5.083000   55.318000  -20.641000 T    3439 GCA    -0.6000 ****
10317 HC1     8.550000   46.488000  -17.477000 H    3439 GCA     0.4000 ****
10318 TC2    -5.251000   60.955000  -23.929000 T    3440 GCA     0.6000 ****
10319 TC1    -0.827000   52.570000  -20.747000 T    3440 GCA    -0.6000 ****
10320 HC1     3.596000   44.185000  -17.566000 H    3440 GCA     0.4000 ****
10321 TC2   -11.720000   57.019000  -24.052000 T    3441 GCA     0.6000 ****
10322 TC1    -6.396000   49.182000  -20.854000 T    3441 GCA    -0.6000 ****
10323 HC1    -1.071000   41.345000  -17.655000 H    3441 GCA     0.4000 ****
10324 TC2   -17.712000   52.389000  -24.176000 T    3442 GCA     0.6000 ****
10325 TC1   -11.553000   45.197000  -20.960000 T    3442 GCA    -0.6000 ****
10326 HC1    -5.394000   38.004000  -17.744000 H    3442 GCA     0.4000 ****
10327 TC2   -23.151000   47.120000  -24.299000 T    3443 GCA     0.6000 ****
10328 TC1   -16.235000   40.662000  -21.066000 T    3443 GCA    -0.6000 ****
10329 HC1    -9.318000   34.204000  -17.833000 H    3443 GCA     0.4000 ****
10330 TC2   -27.970000   41.279000  -24.423000 T    3444 GCA     0.6000 ****
10331 TC1   -20.382000   35.634000  -21.173000 T    3444 GCA    -0.6000 ****
10332 HC1   -12.795000   29.990000  -17.922000 H    3444 GCA     0.4000 ****
10333 TC2   -32.108000   34.937000  -24.546000 T    3445 GCA     0.6000 ****
10334 TC1   -23.944000   30.176000  -21.279000 T    3445 GCA    -0.6000 ****
10335 HC1   -15.780000   25.414000  -18.011000 H    3445 GCA     0.4000 ****
10336 TC2   -35.514000   28.174000  -24.670000 T    3446 GCA     0.6000 ****
10337 TC1   -26.876000   24.354000  -21.385000 T    3446 GCA    -0.6000 ****
10338 HC1   -18.237000   20.535000  -18.100000 H    3446 GCA     0.4000 ****
10339 TC2   -38.144000   21.072000  -24.793000 T    3447 GCA     0.6000 ****
10340 TC1   -29.139000   18.242000  -21.491000 T    3447 GCA    -0.6000 ****
10341 HC1   -20.135000   15.412000  -18.190000 H    3447 GCA     0.4000 ****
10342 TC2   -39.966000   13.722000  -24.917000 T    3448 GCA     0.6000 ****
10343 TC1   -30.707000   11.916000  -21.598000 T    3448 GCA    -0.6000 ****
10344 HC1   -21.448000   10.110000  -18.279000 H    3448 GCA     0.4000 ****
10345 TC2   -40.955000    6.215000  -25.040000 T    3449 GCA     0.6000 ****
10346 TC1   -31.558000    5.454000  -21.704000 T    3449 GCA    -0.6000 ****
10347 HC1   -22.162000    4.693000  -18.368000 H    3449 GCA     0.4000 ****
10348 TC2   -41.098000   -1.356000  -25.164000 T    3450 GCA     0.6000 ****
10349 TC1   -31.682000   -1.063000  -21.810000 T    3450 GCA    -0.6000 ****
10350 HC1   -22.266000   -0.769000  -18.457000 H    3450 GCA     0.4000 ****
10351 TC2   -40.395000   -8.896000  -25.287000 T    3451 GCA     0.6000 ****
10352 TC1   -31.076000   -7.552000  -21.916000 T    3451 GCA    -0.6000 ****
10353 HC1   -21.758000   -6.208000  -18.546000 H    3451 GCA     0.4000 ****
10354 TC2   -38.852000  -16.310000  -25.410000 T    3452 GCA     0.6000 ****
10355 TC1   -29.749000  -13.933000  -22.023000 T    3452 GCA    -0.6000 ****
10356 HC1   -20.645000  -11.556000  -18.635000 H    3452 GCA     0.4000 ****
10357 TC2   -36.489000  -23.504000  -25.534000 T    3453 GCA     0.6000 ****
10358 TC1   -27.715000  -20.125000  -22.129000 T    3453 GCA    -0.6000 ****
10359 HC1   -18.940000  -16.746000  -18.724000 H    3453 GCA     0.4000 ****
10360 TC2   -33.335000  -30.388000  -25.657000 T    3454 GCA     0.6000 ****
10361 TC1   -25.000000  -26.051000  -22.235000 T    3454 GCA    -0.6000 ****
10362 HC1   -16.665000  -21.713000  -18.813000 H    3454 GCA     0.4000 ****
10363 TC2   -29.429000  -36.875000  -25.781000 T    3455 GCA     0.6000 ****
10364 TC1   -21.638000  -31.634000  -22.341000 T    3455 GCA    -0.6000 ****
10365 HC1   -13.847000  -26.393000  -18.902000 H    3455 GCA     0.4000 ****
10366 TC2   -24.820000  -42.884000  -25.904000 T    3456 GCA     0.6000 ****
10367 TC1   -17.671000  -36.805000  -22.448000 T    3456 GCA    -0.6000 ****
10368 HC1   -10.522000  -30.727000  -18.991000 H    3456 GCA     0.4000 ****
10369 TC2   -19.565000  -48.336000  -26.028000 T    3457 GCA     0.6000 ****
10370 TC1   -13.148000  -41.499000  -22.554000 T    3457 GCA    -0.6000 ****
10371 HC1    -6.731000  -34.661000  -19.080000 H    3457 GCA     0.4000 ****
10372 TC2   -13.732000  -53.164000  -26.151000 T    3458 GCA     0.6000 ****
10373 TC1    -8.127000  -45.654000  -22.660000 T    3458 GCA    -0.6000 ****
10374 HC1    -2.523000  -38.144000  -19.169000 H    3458 GCA     0.4000 ****
10375 TC2    -7.392000  -57.306000  -26.275000 T    3459 GCA     0.6000 ****
10376 TC1    -2.671000  -49.219000  -22.767000 T    3459 GCA    -0.6000 ****
10377 HC1     2.051000  -41.132000  -19.258000 H    3459 GCA     0.4000 ****
10378 TC2    -0.627000  -60.708000  -26.398000 T    3460 GCA     0.6000 ****
10379 TC1     3.152000  -52.147000  -22.873000 T    3460 GCA    -0.6000 ****
10380 HC1     6.931000  -43.586000  -19.347000 H    3460 GCA     0.4000 ****
10381 TC2     6.477000  -63.327000  -26.522000 T    3461 GCA     0.6000 ****
10382 TC1     9.267000  -54.401000  -22.979000 T    3461 GCA    -0.6000 ****
10383 HC1    12.057000  -45.475000  -19.436000 H    3461 GCA     0.4000 ****
10384 TC2    13.832000  -65.129000  -26.645000 T    3462 GCA     0.6000 ****
10385 TC1    15.597000  -55.952000  -23.085000 T    3462 GCA    -0.6000 ****
10386 HC1    17.362000  -46.776000  -19.526000 H    3462 GCA     0.4000 ****
10387 TC2    21.343000  -66.091000  -26.769000 T    3463 GCA     0.6000 ****
10388 TC1    22.062000  -56.780000  -23.192000 T    3463 GCA    -0.6000 ****
10389 HC1    22.781000  -47.469000  -19.615000 H    3463 GCA     0.4000 ****
10390 TC2    28.914000  -66.199000  -26.892000 T    3464 GCA     0.6000 ****
10391 TC1    28.579000  -56.873000  -23.298000 T    3464 GCA    -0.6000 ****
10392 HC1    28.243000  -47.547000  -19.704000 H    3464 GCA     0.4000 ****
10393 TC2    36.450000  -65.452000  -27.015000 T    3465 GCA     0.6000 ****
10394 TC1    35.064000  -56.230000  -23.404000 T    3465 GCA    -0.6000 ****
10395 HC1    33.679000  -47.008000  -19.793000 H    3465 GCA     0.4000 ****
10396 TC2    43.852000  -63.858000  -27.139000 T    3466 GCA     0.6000 ****
10397 TC1    41.436000  -54.859000  -23.510000 T    3466 GCA    -0.6000 ****
10398 HC1    39.020000  -45.859000  -19.882000 H    3466 GCA     0.4000 ****
10399 TC2    51.027000  -61.438000  -27.262000 T    3467 GCA     0.6000 ****
10400 TC1    47.612000  -52.776000  -23.617000 T    3467 GCA    -0.6000 ****
10401 HC1    44.196000  -44.113000  -19.971000 H    3467 GCA     0.4000 ****
10402 TC2    57.882000  -58.222000  -27.386000 T    3468 GCA     0.6000 ****
10403 TC1    53.512000  -50.008000  -23.723000 T    3468 GCA    -0.6000 ****
10404 HC1    49.141000  -41.793000  -20.060000 H    3468 GCA     0.4000 ****
10405 TC2    64.330000  -54.251000  -27.509000 T    3469 GCA     0.6000 ****
10406 TC1    59.061000  -46.590000  -23.829000 T    3469 GCA    -0.6000 ****
10407 HC1    53.793000  -38.928000  -20.149000 H    3469 GCA     0.4000 ****
10408 TC2    70.285000  -49.575000  -27.633000 T    3470 GCA     0.6000 ****
10409 TC1    64.187000  -42.565000  -23.935000 T    3470 GCA    -0.6000 ****
10410 HC1    58.089000  -35.555000  -20.238000 H    3470 GCA     0.4000 ****
10411 TC2    75.672000  -44.254000  -27.756000 T    3471 GCA     0.6000 ****
10412 TC1    68.824000  -37.985000  -24.042000 T    3471 GCA    -0.6000 ****
10413 HC1    61.976000  -31.716000  -20.327000 H    3471 GCA     0.4000 ****
10414 TC2    80.421000  -38.356000  -27.880000 T    3472 GCA     0.6000 ****
10415 TC1    72.911000  -32.908000  -24.148000 T    3472 GCA    -0.6000 ****
10416 HC1    65.401000  -27.461000  -20.416000 H    3472 GCA     0.4000 ****
10417 TC2    84.470000  -31.957000  -28.003000 T    3473 GCA     0.6000 ****
10418 TC1    76.396000  -27.401000  -24.254000 T    3473 GCA    -0.6000 ****
10419 HC1    68.322000  -22.845000  -20.505000 H    3473 GCA     0.4000 ****
10420 TC2    87.765000  -25.140000  -28.127000 T    3474 GCA     0.6000 ****
10421 TC1    79.232000  -21.533000  -24.360000 T    3474 GCA    -0.6000 ****
10422 HC1    70.699000  -17.926000  -20.594000 H    3474 GCA     0.4000 ****
10423 TC2    90.264000  -17.992000  -28.250000 T    3475 GCA     0.6000 ****
10424 TC1    81.383000  -15.381000  -24.467000 T    3475 GCA    -0.6000 ****
10425 HC1    72.502000  -12.770000  -20.683000 H    3475 GCA     0.4000 ****
10426 TC2    91.933000  -10.606000  -28.374000 T    3476 GCA     0.6000 ****
10427 TC1    82.819000   -9.024000  -24.573000 T    3476 GCA    -0.6000 ****
10428 HC1    73.706000   -7.442000  -20.773000 H    3476 GCA     0.4000 ****
10429 TC2    92.750000   -3.079000  -28.497000 T    3477 GCA     0.6000 ****
10430 TC1    83.523000   -2.545000  -24.679000 T    3477 GCA    -0.6000 ****
10431 HC1    74.296000   -2.011000  -20.862000 H    3477 GCA     0.4000 ****
10432 TC2    92.704000    4.493000  -28.620000 T    3478 GCA     0.6000 ****
10433 TC1    83.483000    3.972000  -24.786000 T    3478 GCA    -0.6000 ****
10434 HC1    74.263000    3.451000  -20.951000 H    3478 GCA     0.4000 ****
10435 TC2    91.795000   12.010000  -28.744000 T    3479 GCA     0.6000 ****
10436 TC1    82.701000   10.442000  -24.892000 T    3479 GCA    -0.6000 ****
10437 HC1    73.607000    8.874000  -21.040000 H    3479 GCA     0.4000 ****
10438 TC2    90.034000   19.374000  -28.867000 T    3480 GCA     0.6000 ****
10439 TC1    81.185000   16.781000  -24.998000 T    3480 GCA    -0.6000 ****
10440 HC1    72.336000   14.187000  -21.129000 H    3480 GCA     0.4000 ****
10441 TC2    87.443000   26.489000  -28.991000 T    3481 GCA     0.6000 ****
10442 TC1    78.955000   22.905000  -25.104000 T    3481 GCA    -0.6000 ****
10443 HC1    70.467000   19.320000  -21.218000 H    3481 GCA     0.4000 ****
10444 TC2    84.056000   33.261000  -29.114000 T    3482 GCA     0.6000 ****
10445 TC1    76.040000   28.733000  -25.211000 T    3482 GCA    -0.6000 ****
10446 HC1    68.024000   24.205000  -21.307000 H    3482 GCA     0.4000 ****
10447 TC2    79.917000   39.601000  -29.238000 T    3483 GCA     0.6000 ****
10448 TC1    72.477000   34.190000  -25.317000 T    3483 GCA    -0.6000 ****
10449 HC1    65.037000   28.779000  -21.396000 H    3483 GCA     0.4000 ****
10450 TC2    75.079000   45.426000  -29.361000 T    3484 GCA     0.6000 ****
10451 TC1    68.313000   39.203000  -25.423000 T    3484 GCA    -0.6000 ****
10452 HC1    61.547000   32.981000  -21.485000 H    3484 GCA     0.4000 ****
10453 TC2    69.605000   50.657000  -29.485000 T    3485 GCA     0.6000 ****
10454 TC1    63.602000   43.706000  -25.529000 T    3485 GCA    -0.6000 ****
10455 HC1    57.598000   36.755000  -21.574000 H    3485 GCA     0.4000 ****
10456 TC2    63.567000   55.227000  -29.608000 T    3486 GCA     0.6000 ****
10457 TC1    58.405000   47.639000  -25.636000 T    3486 GCA    -0.6000 ****
10458 HC1    53.243000   40.052000  -21.663000 H    3486 GCA     0.4000 ****
10459 TC2    57.046000   59.073000  -29.732000 T    3487 GCA     0.6000 ****
10460 TC1    52.792000   50.950000  -25.742000 T    3487 GCA    -0.6000 ****
10461 HC1    48.538000   42.827000  -21.752000 H    3487 GCA     0.4000 ****
10462 TC2    50.125000   62.145000  -29.855000 T    3488 GCA     0.6000 ****
10463 TC1    46.835000   53.594000  -25.848000 T    3488 GCA    -0.6000 ****
10464 HC1    43.545000   45.043000  -21.841000 H    3488 GCA     0.4000 ****
10465 TC2    42.897000   64.401000  -29.979000 T    3489 GCA     0.6000 ****
10466 TC1    40.614000   55.536000  -25.954000 T    3489 GCA    -0.6000 ****
10467 HC1    38.331000   46.670000  -21.930000 H    3489 GCA     0.4000 ****
10468 TC2    35.458000   65.811000  -30.102000 T    3490 GCA     0.6000 ****
10469 TC1    34.211000   56.749000  -26.061000 T    3490 GCA    -0.6000 ****
10470 HC1    32.964000   47.687000  -22.019000 H    3490 GCA     0.4000 ****
10471 TC2    27.906000   66.354000  -30.225000 T    3491 GCA     0.6000 ****
10472 TC1    27.711000   57.217000  -26.167000 T    3491 GCA    -0.6000 ****
10473 HC1    27.516000   48.079000  -22.109000 H    3491 GCA     0.4000 ****
10474 TC2    20.342000   66.024000  -30.349000 T    3492 GCA     0.6000 ****
10475 TC1    21.200000   56.932000  -26.273000 T    3492 GCA    -0.6000 ****
10476 HC1    22.059000   47.841000  -22.198000 H    3492 GCA     0.4000 ****
10477 TC2    12.866000   64.823000  -30.472000 T    3493 GCA     0.6000 ****
10478 TC1    14.766000   55.899000  -26.380000 T    3493 GCA    -0.6000 ****
10479 HC1    16.665000   46.975000  -22.287000 H    3493 GCA     0.4000 ****
10480 TC2     5.579000   62.768000  -30.596000 T    3494 GCA     0.6000 ****
10481 TC1     8.493000   54.130000  -26.486000 T    3494 GCA    -0.6000 ****
10482 HC1    11.408000   45.492000  -22.376000 H    3494 GCA     0.4000 ****
10483 TC2    -1.422000   59.884000  -30.719000 T    3495 GCA     0.6000 ****
10484 TC1     2.468000   51.648000  -26.592000 T    3495 GCA    -0.6000 ****
10485 HC1     6.358000   43.412000  -22.465000 H    3495 GCA     0.4000 ****
10486 TC2    -8.043000   56.210000  -30.843000 T    3496 GCA     0.6000 ****
10487 TC1    -3.231000   48.486000  -26.698000 T    3496 GCA    -0.6000 ****
10488 HC1     1.581000   40.762000  -22.554000 H    3496 GCA     0.4000 ****
10489 TC2   -14.194000   51.795000  -30.966000 T    3497 GCA     0.6000 ****
10490 TC1    -8.525000   44.686000  -26.805000 T    3497 GCA    -0.6000 ****
10491 HC1    -2.856000   37.576000  -22.643000 H    3497 GCA     0.4000 ****
10492 TC2   -19.792000   46.698000  -31.090000 T    3498 GCA     0.6000 ****
10493 TC1   -13.343000   40.298000  -26.911000 T    3498 GCA    -0.6000 ****
10494 HC1    -6.895000   33.899000  -22.732000 H    3498 GCA     0.4000 ****
10495 TC2   -24.761000   40.985000  -31.213000 T    3499 GCA     0.6000 ****
10496 TC1   -17.621000   35.381000  -27.017000 T    3499 GCA    -0.6000 ****
10497 HC1   -10.480000   29.778000  -22.821000 H    3499 GCA     0.4000 ****
10498 TC2   -29.034000   34.735000  -31.337000 T    3500 GCA     0.6000 ****
10499 TC1   -21.298000   30.002000  -27.123000 T    3500 GCA    -0.6000 ****
10500 HC1   -13.562000   25.269000  -22.910000 H    3500 GCA     0.4000 ****
10501 TC2   -32.553000   28.031000  -31.460000 T    3501 GCA     0.6000 ****
10502 TC1   -24.327000   24.231000  -27.230000 T    3501 GCA    -0.6000 ****
10503 HC1   -16.101000   20.432000  -22.999000 H    3501 GCA     0.4000 ****
10504 TC2   -35.268000   20.963000  -31.584000 T    3502 GCA     0.6000 ****
10505 TC1   -26.664000   18.148000  -27.336000 T    3502 GCA    -0.6000 ****
10506 HC1   -18.060000   15.333000  -23.088000 H    3502 GCA     0.4000 ****
10507 TC2   -37.143000   13.628000  -31.707000 T    3503 GCA     0.6000 ****
10508 TC1   -28.278000   11.834000  -27.442000 T    3503 GCA    -0.6000 ****
10509 HC1   -19.412000   10.041000  -23.177000 H    3503 GCA     0.4000 ****
10510 TC2   -38.151000    6.124000  -31.830000 T    3504 GCA     0.6000 ****
10511 TC1   -29.145000    5.376000  -27.548000 T    3504 GCA    -0.6000 ****
10512 HC1   -20.139000    4.628000  -23.266000 H    3504 GCA     0.4000 ****
10513 TC2   -38.277000   -1.447000  -31.954000 T    3505 GCA     0.6000 ****
10514 TC1   -29.254000   -1.140000  -27.655000 T    3505 GCA    -0.6000 ****
10515 HC1   -20.231000   -0.834000  -23.356000 H    3505 GCA     0.4000 ****
10516 TC2   -37.520000   -8.980000  -32.077000 T    3506 GCA     0.6000 ****
10517 TC1   -28.602000   -7.624000  -27.761000 T    3506 GCA    -0.6000 ****
10518 HC1   -19.684000   -6.268000  -23.445000 H    3506 GCA     0.4000 ****
10519 TC2   -35.889000  -16.373000  -32.201000 T    3507 GCA     0.6000 ****
10520 TC1   -27.198000  -13.988000  -27.867000 T    3507 GCA    -0.6000 ****
10521 HC1   -18.507000  -11.602000  -23.534000 H    3507 GCA     0.4000 ****
10522 TC2   -33.404000  -23.525000  -32.324000 T    3508 GCA     0.6000 ****
10523 TC1   -25.060000  -20.143000  -27.974000 T    3508 GCA    -0.6000 ****
10524 HC1   -16.715000  -16.762000  -23.623000 H    3508 GCA     0.4000 ****
10525 TC2   -30.101000  -30.337000  -32.448000 T    3509 GCA     0.6000 ****
10526 TC1   -22.216000  -26.007000  -28.080000 T    3509 GCA    -0.6000 ****
10527 HC1   -14.332000  -21.676000  -23.712000 H    3509 GCA     0.4000 ****
10528 TC2   -26.022000  -36.716000  -32.571000 T    3510 GCA     0.6000 ****
10529 TC1   -18.706000  -31.497000  -28.186000 T    3510 GCA    -0.6000 ****
10530 HC1   -11.389000  -26.278000  -23.801000 H    3510 GCA     0.4000 ****
10531 TC2   -21.224000  -42.573000  -32.695000 T    3511 GCA     0.6000 ****
10532 TC1   -14.576000  -36.538000  -28.292000 T    3511 GCA    -0.6000 ****
10533 HC1    -7.928000  -30.503000  -23.890000 H    3511 GCA     0.4000 ****
10534 TC2   -15.773000  -47.827000  -32.818000 T    3512 GCA     0.6000 ****
10535 TC1    -9.884000  -41.060000  -28.399000 T    3512 GCA    -0.6000 ****
10536 HC1    -3.995000  -34.293000  -23.979000 H    3512 GCA     0.4000 ****
10537 TC2    -9.742000  -52.404000  -32.942000 T    3513 GCA     0.6000 ****
10538 TC1    -4.694000  -45.000000  -28.505000 T    3513 GCA    -0.6000 ****
10539 HC1     0.355000  -37.596000  -24.068000 H    3513 GCA     0.4000 ****
10540 TC2    -3.216000  -56.241000  -33.065000 T    3514 GCA     0.6000 ****
10541 TC1     0.924000  -48.303000  -28.611000 T    3514 GCA    -0.6000 ****
10542 HC1     5.064000  -40.364000  -24.157000 H    3514 GCA     0.4000 ****
10543 TC2     3.717000  -59.284000  -33.189000 T    3515 GCA     0.6000 ****
10544 TC1     6.891000  -50.922000  -28.717000 T    3515 GCA    -0.6000 ****
10545 HC1    10.065000  -42.559000  -24.246000 H    3515 GCA     0.4000 ****
10546 TC2    10.959000  -61.490000  -33.312000 T    3516 GCA     0.6000 ****
10547 TC1    13.125000  -52.820000  -28.824000 T    3516 GCA    -0.6000 ****
10548 HC1    15.290000  -44.150000  -24.335000 H    3516 GCA     0.4000 ****
10549 TC2    18.411000  -62.826000  -33.436000 T    3517 GCA     0.6000 ****
10550 TC1    19.539000  -53.970000  -28.930000 T    3517 GCA    -0.6000 ****
10551 HC1    20.666000  -45.114000  -24.424000 H    3517 GCA     0.4000 ****
10552 TC2    25.969000  -63.275000  -33.559000 T    3518 GCA     0.6000 ****
10553 TC1    26.044000  -54.356000  -29.036000 T    3518 GCA    -0.6000 ****
10554 HC1    26.118000  -45.438000  -24.513000 H    3518 GCA     0.4000 ****
10555 TC2    33.527000  -62.828000  -33.682000 T    3519 GCA     0.6000 ****
10556 TC1    32.549000  -53.972000  -29.142000 T    3519 GCA    -0.6000 ****
10557 HC1    31.571000  -45.115000  -24.602000 H    3519 GCA     0.4000 ****
10558 TC2    40.979000  -61.491000  -33.806000 T    3520 GCA     0.6000 ****
10559 TC1    38.963000  -52.821000  -29.249000 T    3520 GCA    -0.6000 ****
10560 HC1    36.947000  -44.151000  -24.692000 H    3520 GCA     0.4000 ****
10561 TC2    48.220000  -59.281000  -33.929000 T    3521 GCA     0.6000 ****
10562 TC1    45.195000  -50.919000  -29.355000 T    3521 GCA    -0.6000 ****
10563 HC1    42.171000  -42.557000  -24.781000 H    3521 GCA     0.4000 ****
10564 TC2    55.149000  -56.230000  -34.053000 T    3522 GCA     0.6000 ****
10565 TC1    51.159000  -48.293000  -29.461000 T    3522 GCA    -0.6000 ****
10566 HC1    47.169000  -40.356000  -24.870000 H    3522 GCA     0.4000 ****
10567 TC2    61.667000  -52.379000  -34.176000 T    3523 GCA     0.6000 ****
10568 TC1    56.769000  -44.979000  -29.568000 T    3523 GCA    -0.6000 ****
10569 HC1    51.872000  -37.578000  -24.959000 H    3523 GCA     0.4000 ****
10570 TC2    67.682000  -47.782000  -34.300000 T    3524 GCA     0.6000 ****
10571 TC1    61.947000  -41.022000  -29.674000 T    3524 GCA    -0.6000 ****
10572 HC1    56.211000  -34.261000  -25.048000 H    3524 GCA     0.4000 ****
10573 TC2    73.109000  -42.503000  -34.423000 T    3525 GCA     0.6000 ****
10574 TC1    66.617000  -36.478000  -29.780000 T    3525 GCA    -0.6000 ****
10575 HC1    60.126000  -30.453000  -25.137000 H    3525 GCA     0.4000 ****
10576 TC2    77.869000  -36.617000  -34.547000 T    3526 GCA     0.6000 ****
10577 TC1    70.715000  -31.411000  -29.886000 T    3526 GCA    -0.6000 ****
10578 HC1    63.560000  -26.206000  -25.226000 H    3526 GCA     0.4000 ****
10579 TC2    81.895000  -30.205000  -34.670000 T    3527 GCA     0.6000 ****
10580 TC1    74.180000  -25.893000  -29.993000 T    3527 GCA    -0.6000 ****
10581 HC1    66.465000  -21.581000  -25.315000 H    3527 GCA     0.4000 ****
10582 TC2    85.129000  -23.360000  -34.794000 T    3528 GCA     0.6000 ****
10583 TC1    76.963000  -20.001000  -30.099000 T    3528 GCA    -0.6000 ****
10584 HC1    68.798000  -16.643000  -25.404000 H    3528 GCA     0.4000 ****
10585 TC2    87.523000  -16.178000  -34.917000 T    3529 GCA     0.6000 ****
10586 TC1    79.024000  -13.820000  -30.205000 T    3529 GCA    -0.6000 ****
10587 HC1    70.525000  -11.461000  -25.493000 H    3529 GCA     0.4000 ****
10588 TC2    89.043000   -8.762000  -35.041000 T    3530 GCA     0.6000 ****
10589 TC1    80.332000   -7.436000  -30.311000 T    3530 GCA    -0.6000 ****
10590 HC1    71.622000   -6.111000  -25.582000 H    3530 GCA     0.4000 ****
10591 TC2    89.666000   -1.217000  -35.164000 T    3531 GCA     0.6000 ****
10592 TC1    80.868000   -0.942000  -30.418000 T    3531 GCA    -0.6000 ****
10593 HC1    72.071000   -0.668000  -25.671000 H    3531 GCA     0.4000 ****
10594 TC2    89.381000    6.348000  -35.287000 T    3532 GCA     0.6000 ****
10595 TC1    80.623000    5.569000  -30.524000 T    3532 GCA    -0.6000 ****
10596 HC1    71.866000    4.790000  -25.760000 H    3532 GCA     0.4000 ****
10597 TC2    88.193000   13.825000  -35.411000 T    3533 GCA     0.6000 ****
10598 TC1    79.601000   12.004000  -30.630000 T    3533 GCA    -0.6000 ****
10599 HC1    71.008000   10.184000  -25.849000 H    3533 GCA     0.4000 ****
10600 TC2    86.117000   21.105000  -35.534000 T    3534 GCA     0.6000 ****
10601 TC1    77.814000   18.271000  -30.736000 T    3534 GCA    -0.6000 ****
10602 HC1    69.511000   15.436000  -25.939000 H    3534 GCA     0.4000 ****
10603 TC2    83.183000   28.084000  -35.658000 T    3535 GCA     0.6000 ****
10604 TC1    75.288000   24.277000  -30.843000 T    3535 GCA    -0.6000 ****
10605 HC1    67.394000   20.470000  -26.028000 H    3535 GCA     0.4000 ****
10606 TC2    79.431000   34.659000  -35.781000 T    3536 GCA     0.6000 ****
10607 TC1    72.059000   29.937000  -30.949000 T    3536 GCA    -0.6000 ****
10608 HC1    64.687000   25.214000  -26.117000 H    3536 GCA     0.4000 ****
10609 TC2    74.916000   40.736000  -35.905000 T    3537 GCA     0.6000 ****
10610 TC1    68.173000   35.167000  -31.055000 T    3537 GCA    -0.6000 ****
10611 HC1    61.430000   29.598000  -26.206000 H    3537 GCA     0.4000 ****
10612 TC2    69.702000   46.224000  -36.028000 T    3538 GCA     0.6000 ****
10613 TC1    63.685000   39.891000  -31.162000 T    3538 GCA    -0.6000 ****
10614 HC1    57.668000   33.557000  -26.295000 H    3538 GCA     0.4000 ****
10615 TC2    63.865000   51.045000  -36.152000 T    3539 GCA     0.6000 ****
10616 TC1    58.661000   44.040000  -31.268000 T    3539 GCA    -0.6000 ****
10617 HC1    53.457000   37.035000  -26.384000 H    3539 GCA     0.4000 ****
10618 TC2    57.488000   55.125000  -36.275000 T    3540 GCA     0.6000 ****
10619 TC1    53.173000   47.552000  -31.374000 T    3540 GCA    -0.6000 ****
10620 HC1    48.857000   39.979000  -26.473000 H    3540 GCA     0.4000 ****
10621 TC2    50.666000   58.406000  -36.399000 T    3541 GCA     0.6000 ****
10622 TC1    47.301000   50.376000  -31.480000 T    3541 GCA    -0.6000 ****
10623 HC1    43.935000   42.345000  -26.562000 H    3541 GCA     0.4000 ****
10624 TC2    43.497000   60.838000  -36.522000 T    3542 GCA     0.6000 ****
10625 TC1    41.130000   52.469000  -31.587000 T    3542 GCA    -0.6000 ****
10626 HC1    38.763000   44.100000  -26.651000 H    3542 GCA     0.4000 ****
10627 TC2    36.086000   62.383000  -36.646000 T    3543 GCA     0.6000 ****
10628 TC1    34.752000   53.799000  -31.693000 T    3543 GCA    -0.6000 ****
10629 HC1    33.417000   45.215000  -26.740000 H    3543 GCA     0.4000 ****
10630 TC2    28.543000   63.020000  -36.769000 T    3544 GCA     0.6000 ****
10631 TC1    28.259000   54.347000  -31.799000 T    3544 GCA    -0.6000 ****
10632 HC1    27.975000   45.674000  -26.829000 H    3544 GCA     0.4000 ****
10633 TC2    20.978000   62.736000  -36.892000 T    3545 GCA     0.6000 ****
10634 TC1    21.748000   54.103000  -31.905000 T    3545 GCA    -0.6000 ****
10635 HC1    22.518000   45.470000  -26.918000 H    3545 GCA     0.4000 ****
10636 TC2    13.504000   61.536000  -37.016000 T    3546 GCA     0.6000 ****
10637 TC1    15.315000   53.070000  -32.012000 T    3546 GCA    -0.6000 ****
10638 HC1    17.126000   44.604000  -27.007000 H    3546 GCA     0.4000 ****
10639 TC2     6.231000   59.436000  -37.139000 T    3547 GCA     0.6000 ****
10640 TC1     9.055000   51.262000  -32.118000 T    3547 GCA    -0.6000 ****
10641 HC1    11.879000   43.089000  -27.096000 H    3547 GCA     0.4000 ****
10642 TC2    -0.732000   56.466000  -37.263000 T    3548 GCA     0.6000 ****
10643 TC1     3.062000   48.706000  -32.224000 T    3548 GCA    -0.6000 ****
10644 HC1     6.855000   40.946000  -27.185000 H    3548 GCA     0.4000 ****
10645 TC2    -7.281000   52.670000  -37.386000 T    3549 GCA     0.6000 ****
10646 TC1    -2.575000   45.438000  -32.330000 T    3549 GCA    -0.6000 ****
10647 HC1     2.131000   38.207000  -27.275000 H    3549 GCA     0.4000 ****
10648 TC2   -13.318000   48.102000  -37.510000 T    3550 GCA     0.6000 ****
10649 TC1    -7.771000   41.507000  -32.437000 T    3550 GCA    -0.6000 ****
10650 HC1    -2.224000   34.912000  -27.364000 H    3550 GCA     0.4000 ****
10651 TC2   -18.752000   42.832000  -37.633000 T    3551 GCA     0.6000 ****
10652 TC1   -12.448000   36.971000  -32.543000 T    3551 GCA    -0.6000 ****
10653 HC1    -6.145000   31.110000  -27.453000 H    3551 GCA     0.4000 ****
10654 TC2   -23.500000   36.937000  -37.757000 T    3552 GCA     0.6000 ****
10655 TC1   -16.535000   31.897000  -32.649000 T    3552 GCA    -0.6000 ****
10656 HC1    -9.570000   26.857000  -27.542000 H    3552 GCA     0.4000 ****
10657 TC2   -27.491000   30.504000  -37.880000 T    3553 GCA     0.6000 ****
10658 TC1   -19.970000   26.360000  -32.755000 T    3553 GCA    -0.6000 ****
10659 HC1   -12.449000   22.216000  -27.631000 H    3553 GCA     0.4000 ****
10660 TC2   -30.663000   23.631000  -38.004000 T    3554 GCA     0.6000 ****
10661 TC1   -22.700000   20.444000  -32.862000 T    3554 GCA    -0.6000 ****
10662 HC1   -14.737000   17.258000  -27.720000 H    3554 GCA     0.4000 ****
10663 TC2   -32.968000   16.420000  -38.127000 T    3555 GCA     0.6000 ****
10664 TC1   -24.684000   14.238000  -32.968000 T    3555 GCA    -0.6000 ****
10665 HC1   -16.400000   12.056000  -27.809000 H    3555 GCA     0.4000 ****
10666 TC2   -34.368000    8.981000  -38.251000 T    3556 GCA     0.6000 ****
10667 TC1   -25.889000    7.835000  -33.074000 T    3556 GCA    -0.6000 ****
10668 HC1   -17.410000    6.689000  -27.898000 H    3556 GCA     0.4000 ****
10669 TC2   -34.843000    1.427000  -38.374000 T    3557 GCA     0.6000 ****
10670 TC1   -26.298000    1.333000  -33.181000 T    3557 GCA    -0.6000 ****
10671 HC1   -17.753000    1.239000  -27.987000 H    3557 GCA     0.4000 ****
10672 TC2   -34.384000   -6.129000  -38.497000 T    3558 GCA     0.6000 ****
10673 TC1   -25.903000   -5.170000  -33.287000 T    3558 GCA    -0.6000 ****
10674 HC1   -17.422000   -4.212000  -28.076000 H    3558 GCA     0.4000 ****
10675 TC2   -32.996000  -13.570000  -38.621000 T    3559 GCA     0.6000 ****
10676 TC1   -24.708000  -11.575000  -33.393000 T    3559 GCA    -0.6000 ****
10677 HC1   -16.421000   -9.580000  -28.165000 H    3559 GCA     0.4000 ****
10678 TC2   -30.700000  -20.783000  -38.744000 T    3560 GCA     0.6000 ****
10679 TC1   -22.732000  -17.784000  -33.499000 T    3560 GCA    -0.6000 ****
10680 HC1   -14.764000  -14.784000  -28.254000 H    3560 GCA     0.4000 ****
10681 TC2   -27.530000  -27.657000  -38.868000 T    3561 GCA     0.6000 ****
10682 TC1   -20.004000  -23.700000  -33.606000 T    3561 GCA    -0.6000 ****
10683 HC1   -12.477000  -19.743000  -28.343000 H    3561 GCA     0.4000 ****
10684 TC2   -23.534000  -34.086000  -38.991000 T    3562 GCA     0.6000 ****
10685 TC1   -16.564000  -29.233000  -33.712000 T    3562 GCA    -0.6000 ****
10686 HC1    -9.594000  -24.380000  -28.432000 H    3562 GCA     0.4000 ****
10687 TC2   -18.771000  -39.969000  -39.115000 T    3563 GCA     0.6000 ****
10688 TC1   -12.465000  -34.297000  -33.818000 T    3563 GCA    -0.6000 ****
10689 HC1    -6.158000  -28.625000  -28.522000 H    3563 GCA     0.4000 ****
10690 TC2   -13.315000  -45.216000  -39.238000 T    3564 GCA     0.6000 ****
10691 TC1    -7.769000  -38.813000  -33.924000 T    3564 GCA    -0.6000 ****
10692 HC1    -2.222000  -32.410000  -28.611000 H    3564 GCA     0.4000 ****
10693 TC2    -7.250000  -49.744000  -39.362000 T    3565 GCA     0.6000 ****
10694 TC1    -2.548000  -42.710000  -34.031000 T    3565 GCA    -0.6000 ****
10695 HC1     2.154000  -35.677000  -28.700000 H    3565 GCA     0.4000 ****
10696 TC2    -0.668000  -53.483000  -39.485000 T    3566 GCA     0.6000 ****
10697 TC1     3.117000  -45.928000  -34.137000 T    3566 GCA    -0.6000 ****
10698 HC1     6.902000  -38.374000  -28.789000 H    3566 GCA     0.4000 ****
10699 TC2     6.328000  -56.372000  -39.609000 T    3567 GCA     0.6000 ****
10700 TC1     9.139000  -48.415000  -34.243000 T    3567 GCA    -0.6000 ****
10701 HC1    11.949000  -40.458000  -28.878000 H    3567 GCA     0.4000 ****
10702 TC2    13.630000  -58.366000  -39.732000 T    3568 GCA     0.6000 ****
10703 TC1    15.424000  -50.132000  -34.349000 T    3568 GCA    -0.6000 ****
10704 HC1    17.217000  -41.897000  -28.967000 H    3568 GCA     0.4000 ****
10705 TC2    21.124000  -59.433000  -39.856000 T    3569 GCA     0.6000 ****
10706 TC1    21.873000  -51.050000  -34.456000 T    3569 GCA    -0.6000 ****
10707 HC1    22.623000  -42.666000  -29.056000 H    3569 GCA     0.4000 ****
10708 TC2    28.692000  -59.554000  -39.979000 T    3570 GCA     0.6000 ****
10709 TC1    28.388000  -51.154000  -34.562000 T    3570 GCA    -0.6000 ****
10710 HC1    28.083000  -42.754000  -29.145000 H    3570 GCA     0.4000 ****
10711 TC2    36.216000  -58.726000  -40.102000 T    3571 GCA     0.6000 ****
10712 TC1    34.863000  -50.441000  -34.668000 T    3571 GCA    -0.6000 ****
10713 HC1    33.511000  -42.157000  -29.234000 H    3571 GCA     0.4000 ****
10714 TC2    43.577000  -56.962000  -40.226000 T    3572 GCA     0.6000 ****
10715 TC1    41.199000  -48.923000  -34.775000 T    3572 GCA    -0.6000 ****
10716 HC1    38.821000  -40.884000  -29.323000 H    3572 GCA     0.4000 ****
10717 TC2    50.657000  -54.287000  -40.349000 T    3573 GCA     0.6000 ****
10718 TC1    47.293000  -46.621000  -34.881000 T    3573 GCA    -0.6000 ****
10719 HC1    43.929000  -38.954000  -29.412000 H    3573 GCA     0.4000 ****
10720 TC2    57.346000  -50.744000  -40.473000 T    3574 GCA     0.6000 ****
10721 TC1    53.050000  -43.571000  -34.987000 T    3574 GCA    -0.6000 ****
10722 HC1    48.754000  -36.398000  -29.501000 H    3574 GCA     0.4000 ****
10723 TC2    63.535000  -46.386000  -40.596000 T    3575 GCA     0.6000 ****
10724 TC1    58.377000  -39.820000  -35.093000 T    3575 GCA    -0.6000 ****
10725 HC1    53.219000  -33.254000  -29.590000 H    3575 GCA     0.4000 ****
10726 TC2    69.125000  -41.284000  -40.720000 T    3576 GCA     0.6000 ****
10727 TC1    63.189000  -35.428000  -35.200000 T    3576 GCA    -0.6000 ****
10728 HC1    57.252000  -29.573000  -29.679000 H    3576 GCA     0.4000 ****
10729 TC2    74.027000  -35.516000  -40.843000 T    3577 GCA     0.6000 ****
10730 TC1    67.408000  -30.464000  -35.306000 T    3577 GCA    -0.6000 ****
10731 HC1    60.788000  -25.412000  -29.768000 H    3577 GCA     0.4000 ****
10732 TC2    78.160000  -29.176000  -40.967000 T    3578 GCA     0.6000 ****
10733 TC1    70.965000  -25.007000  -35.412000 T    3578 GCA    -0.6000 ****
10734 HC1    63.770000  -20.838000  -29.858000 H    3578 GCA     0.4000 ****
10735 TC2    81.458000  -22.363000  -41.090000 T    3579 GCA     0.6000 ****
10736 TC1    73.803000  -19.143000  -35.518000 T    3579 GCA    -0.6000 ****
10737 HC1    66.149000  -15.923000  -29.947000 H    3579 GCA     0.4000 ****
10738 TC2    83.865000  -15.187000  -41.214000 T    3580 GCA     0.6000 ****
10739 TC1    75.875000  -12.967000  -35.625000 T    3580 GCA    -0.6000 ****
10740 HC1    67.886000  -10.746000  -30.036000 H    3580 GCA     0.4000 ****
10741 TC2    85.342000   -7.764000  -41.337000 T    3581 GCA     0.6000 ****
10742 TC1    77.147000   -6.577000  -35.731000 T    3581 GCA    -0.6000 ****
10743 HC1    68.951000   -5.391000  -30.125000 H    3581 GCA     0.4000 ****
10744 TC2    85.864000   -0.213000  -41.461000 T    3582 GCA     0.6000 ****
10745 TC1    77.596000   -0.078000  -35.837000 T    3582 GCA    -0.6000 ****
10746 HC1    69.328000    0.056000  -30.214000 H    3582 GCA     0.4000 ****
10747 TC2    85.420000    7.343000  -41.584000 T    3583 GCA     0.6000 ****
10748 TC1    77.214000    6.425000  -35.943000 T    3583 GCA    -0.6000 ****
10749 HC1    69.008000    5.507000  -30.303000 H    3583 GCA     0.4000 ****
10750 TC2    84.017000   14.780000  -41.708000 T    3584 GCA     0.6000 ****
10751 TC1    76.007000   12.826000  -36.050000 T    3584 GCA    -0.6000 ****
10752 HC1    67.996000   10.873000  -30.392000 H    3584 GCA     0.4000 ****
10753 TC2    81.677000   21.978000  -41.831000 T    3585 GCA     0.6000 ****
10754 TC1    73.992000   19.022000  -36.156000 T    3585 GCA    -0.6000 ****
10755 HC1    66.307000   16.065000  -30.481000 H    3585 GCA     0.4000 ****
10756 TC2    78.435000   28.817000  -41.954000 T    3586 GCA     0.6000 ****
10757 TC1    71.202000   24.908000  -36.262000 T    3586 GCA    -0.6000 ****
10758 HC1    63.969000   20.999000  -30.570000 H    3586 GCA     0.4000 ****
10759 TC2    74.345000   35.185000  -42.078000 T    3587 GCA     0.6000 ****
10760 TC1    67.681000   30.389000  -36.369000 T    3587 GCA    -0.6000 ****
10761 HC1    61.018000   25.593000  -30.659000 H    3587 GCA     0.4000 ****
10762 TC2    69.472000   40.976000  -42.201000 T    3588 GCA     0.6000 ****
10763 TC1    63.487000   35.374000  -36.475000 T    3588 GCA    -0.6000 ****
10764 HC1    57.503000   29.771000  -30.748000 H    3588 GCA     0.4000 ****
10765 TC2    63.896000   46.094000  -42.325000 T    3589 GCA     0.6000 ****
10766 TC1    58.688000   39.779000  -36.581000 T    3589 GCA    -0.6000 ****
10767 HC1    53.480000   33.464000  -30.837000 H    3589 GCA     0.4000 ****
10768 TC2    57.709000   50.453000  -42.448000 T    3590 GCA     0.6000 ****
10769 TC1    53.363000   43.530000  -36.687000 T    3590 GCA    -0.6000 ****
10770 HC1    49.016000   36.608000  -30.926000 H    3590 GCA     0.4000 ****
10771 TC2    51.012000   53.978000  -42.572000 T    3591 GCA     0.6000 ****
10772 TC1    47.598000   46.565000  -36.794000 T    3591 GCA    -0.6000 ****
10773 HC1    44.185000   39.151000  -31.015000 H    3591 GCA     0.4000 ****
10774 TC2    43.916000   56.611000  -42.695000 T    3592 GCA     0.6000 ****
10775 TC1    41.491000   48.831000  -36.900000 T    3592 GCA    -0.6000 ****
10776 HC1    39.066000   41.051000  -31.104000 H    3592 GCA     0.4000 ****
10777 TC2    36.540000   58.305000  -42.819000 T    3593 GCA     0.6000 ****
10778 TC1    35.142000   50.289000  -37.006000 T    3593 GCA    -0.6000 ****
10779 HC1    33.745000   42.273000  -31.194000 H    3593 GCA     0.4000 ****
10780 TC2    29.007000   59.032000  -42.942000 T    3594 GCA     0.6000 ****
10781 TC1    28.658000   50.914000  -37.112000 T    3594 GCA    -0.6000 ****
10782 HC1    28.310000   42.797000  -31.283000 H    3594 GCA     0.4000 ****
10783 TC2    21.443000   58.776000  -43.066000 T    3595 GCA     0.6000 ****
10784 TC1    22.148000   50.694000  -37.219000 T    3595 GCA    -0.6000 ****
10785 HC1    22.853000   42.613000  -31.372000 H    3595 GCA     0.4000 ****
10786 TC2    13.976000   57.542000  -43.189000 T    3596 GCA     0.6000 ****
10787 TC1    15.721000   49.632000  -37.325000 T    3596 GCA    -0.6000 ****
10788 HC1    17.466000   41.722000  -31.461000 H    3596 GCA     0.4000 ****
10789 TC2     6.733000   55.348000  -43.313000 T    3597 GCA     0.6000 ****
10790 TC1     9.487000   47.744000  -37.431000 T    3597 GCA    -0.6000 ****
10791 HC1    12.241000   40.139000  -31.550000 H    3597 GCA     0.4000 ****
10792 TC2    -0.163000   52.230000  -43.436000 T    3598 GCA     0.6000 ****
10793 TC1     3.552000   45.060000  -37.537000 T    3598 GCA    -0.6000 ****
10794 HC1     7.266000   37.890000  -31.639000 H    3598 GCA     0.4000 ****
10795 TC2    -6.594000   48.240000  -43.559000 T    3599 GCA     0.6000 ****
10796 TC1    -1.984000   41.626000  -37.644000 T    3599 GCA    -0.6000 ****
10797 HC1     2.627000   35.012000  -31.728000 H    3599 GCA     0.4000 ****
10798 TC2   -12.449000   43.446000  -43.683000 T    3600 GCA     0.6000 ****
10799 TC1    -7.023000   37.499000  -37.750000 T    3600 GCA    -0.6000 ****
10800 HC1    -1.597000   31.553000  -31.817000 H    3600 GCA     0.4000 ****
10801 TC2   -17.627000   37.927000  -43.806000 T    3601 GCA     0.6000 ****
10802 TC1   -11.480000   32.749000  -37.856000 T    3601 GCA    -0.6000 ****
10803 HC1    -5.333000   27.571000  -31.906000 H    3601 GCA     0.4000 ****
10804 TC2   -22.038000   31.777000  -43.930000 T    3602 GCA     0.6000 ****
10805 TC1   -15.277000   27.456000  -37.963000 T    3602 GCA    -0.6000 ****
10806 HC1    -8.515000   23.135000  -31.995000 H    3602 GCA     0.4000 ****
10807 TC2   -25.605000   25.103000  -44.053000 T    3603 GCA     0.6000 ****
10808 TC1   -18.347000   21.711000  -38.069000 T    3603 GCA    -0.6000 ****
10809 HC1   -11.088000   18.320000  -32.084000 H    3603 GCA     0.4000 ****
10810 TC2   -28.264000   18.017000  -44.177000 T    3604 GCA     0.6000 ****
10811 TC1   -20.635000   15.613000  -38.175000 T    3604 GCA    -0.6000 ****
10812 HC1   -13.007000   13.208000  -32.173000 H    3604 GCA     0.4000 ****
10813 TC2   -29.968000   10.644000  -44.300000 T    3605 GCA     0.6000 ****
10814 TC1   -22.102000    9.267000  -38.281000 T    3605 GCA    -0.6000 ****
10815 HC1   -14.236000    7.889000  -32.262000 H    3605 GCA     0.4000 ****
10816 TC2   -30.686000    3.111000  -44.424000 T    3606 GCA     0.6000 ****
10817 TC1   -22.720000    2.782000  -38.388000 T    3606 GCA    -0.6000 ****
10818 HC1   -14.754000    2.454000  -32.351000 H    3606 GCA     0.4000 ****
10819 TC2   -30.403000   -4.452000  -44.547000 T    3607 GCA     0.6000 ****
10820 TC1   -22.476000   -3.727000  -38.494000 T    3607 GCA    -0.6000 ****
10821 HC1   -14.550000   -3.002000  -32.441000 H    3607 GCA     0.4000 ****
10822 TC2   -29.123000  -11.910000  -44.671000 T    3608 GCA     0.6000 ****
10823 TC1   -21.375000  -10.146000  -38.600000 T    3608 GCA    -0.6000 ****
10824 HC1   -13.626000   -8.382000  -32.530000 H    3608 GCA     0.4000 ****
10825 TC2   -26.867000  -19.134000  -44.794000 T    3609 GCA     0.6000 ****
10826 TC1   -19.433000  -16.364000  -38.706000 T    3609 GCA    -0.6000 ****
10827 HC1   -11.999000  -13.593000  -32.619000 H    3609 GCA     0.4000 ****
10828 TC2   -23.673000  -25.994000  -44.918000 T    3610 GCA     0.6000 ****
10829 TC1   -16.684000  -22.268000  -38.813000 T    3610 GCA    -0.6000 ****
10830 HC1    -9.695000  -18.543000  -32.708000 H    3610 GCA     0.4000 ****
10831 TC2   -19.596000  -32.369000  -45.041000 T    3611 GCA     0.6000 ****
10832 TC1   -13.175000  -27.756000  -38.919000 T    3611 GCA    -0.6000 ****
10833 HC1    -6.753000  -23.142000  -32.797000 H    3611 GCA     0.4000 ****
10834 TC2   -14.707000  -38.145000  -45.164000 T    3612 GCA     0.6000 ****
10835 TC1    -8.967000  -32.727000  -39.025000 T    3612 GCA    -0.6000 ****
10836 HC1    -3.226000  -27.309000  -32.886000 H    3612 GCA     0.4000 ****
10837 TC2    -9.092000  -43.218000  -45.288000 T    3613 GCA     0.6000 ****
10838 TC1    -4.134000  -37.093000  -39.131000 T    3613 GCA    -0.6000 ****
10839 HC1     0.824000  -30.969000  -32.975000 H    3613 GCA     0.4000 ****
10840 TC2    -2.850000  -47.496000  -45.411000 T    3614 GCA     0.6000 ****
10841 TC1     1.239000  -40.775000  -39.238000 T    3614 GCA    -0.6000 ****
10842 HC1     5.328000  -34.055000  -33.064000 H    3614 GCA     0.4000 ****
10843 TC2     3.908000  -50.901000  -45.535000 T    3615 GCA     0.6000 ****
10844 TC1     7.056000  -43.706000  -39.344000 T    3615 GCA    -0.6000 ****
10845 HC1    10.203000  -36.511000  -33.153000 H    3615 GCA     0.4000 ****
10846 TC2    11.061000  -53.369000  -45.658000 T    3616 GCA     0.6000 ****
10847 TC1    13.212000  -45.830000  -39.450000 T    3616 GCA    -0.6000 ****
10848 HC1    15.363000  -38.292000  -33.242000 H    3616 GCA     0.4000 ****
10849 TC2    18.481000  -54.856000  -45.782000 T    3617 GCA     0.6000 ****
10850 TC1    19.599000  -47.110000  -39.556000 T    3617 GCA    -0.6000 ****
10851 HC1    20.716000  -39.364000  -33.331000 H    3617 GCA     0.4000 ****
10852 TC2    26.033000  -55.331000  -45.905000 T    3618 GCA     0.6000 ****
10853 TC1    26.099000  -47.519000  -39.663000 T    3618 GCA    -0.6000 ****
10854 HC1    26.164000  -39.707000  -33.420000 H    3618 GCA     0.4000 ****
10855 TC2    33.580000  -54.785000  -46.029000 T    3619 GCA     0.6000 ****
10856 TC1    32.595000  -47.049000  -39.769000 T    3619 GCA    -0.6000 ****
10857 HC1    31.609000  -39.313000  -33.509000 H    3619 GCA     0.4000 ****
10858 TC2    40.985000  -53.227000  -46.152000 T    3620 GCA     0.6000 ****
10859 TC1    38.968000  -45.708000  -39.875000 T    3620 GCA    -0.6000 ****
10860 HC1    36.951000  -38.189000  -33.598000 H    3620 GCA     0.4000 ****
10861 TC2    48.111000  -50.682000  -46.276000 T    3621 GCA     0.6000 ****
10862 TC1    45.101000  -43.517000  -39.982000 T    3621 GCA    -0.6000 ****
10863 HC1    42.092000  -36.353000  -33.687000 H    3621 GCA     0.4000 ****
10864 TC2    54.827000  -47.195000  -46.399000 T    3622 GCA     0.6000 ****
10865 TC1    50.882000  -40.517000  -40.088000 T    3622 GCA    -0.6000 ****
10866 HC1    46.937000  -33.838000  -33.777000 H    3622 GCA     0.4000 ****
10867 TC2    61.008000  -42.831000  -46.523000 T    3623 GCA     0.6000 ****
10868 TC1    56.202000  -36.760000  -40.194000 T    3623 GCA    -0.6000 ****
10869 HC1    51.396000  -30.689000  -33.866000 H    3623 GCA     0.4000 ****
10870 TC2    66.538000  -37.667000  -46.646000 T    3624 GCA     0.6000 ****
10871 TC1    60.962000  -32.315000  -40.300000 T    3624 GCA    -0.6000 ****
10872 HC1    55.386000  -26.964000  -33.955000 H    3624 GCA     0.4000 ****
10873 TC2    71.315000  -31.798000  -46.769000 T    3625 GCA     0.6000 ****
10874 TC1    65.073000  -27.264000  -40.407000 T    3625 GCA    -0.6000 ****
10875 HC1    58.832000  -22.730000  -34.044000 H    3625 GCA     0.4000 ****
10876 TC2    75.246000  -25.333000  -46.893000 T    3626 GCA     0.6000 ****
10877 TC1    68.457000  -21.700000  -40.513000 T    3626 GCA    -0.6000 ****
10878 HC1    61.668000  -18.066000  -34.133000 H    3626 GCA     0.4000 ****
10879 TC2    78.258000  -18.392000  -47.016000 T    3627 GCA     0.6000 ****
10880 TC1    71.049000  -15.725000  -40.619000 T    3627 GCA    -0.6000 ****
10881 HC1    63.841000  -13.058000  -34.222000 H    3627 GCA     0.4000 ****
10882 TC2    80.291000  -11.104000  -47.140000 T    3628 GCA     0.6000 ****
10883 TC1    72.800000   -9.452000  -40.725000 T    3628 GCA    -0.6000 ****
10884 HC1    65.308000   -7.801000  -34.311000 H    3628 GCA     0.4000 ****
10885 TC2    81.306000   -3.606000  -47.263000 T    3629 GCA     0.6000 ****
10886 TC1    73.673000   -2.999000  -40.832000 T    3629 GCA    -0.6000 ****
10887 HC1    66.040000   -2.391000  -34.400000 H    3629 GCA     0.4000 ****
10888 TC2    81.282000    3.960000  -47.387000 T    3630 GCA     0.6000 ****
10889 TC1    73.652000    3.514000  -40.938000 T    3630 GCA    -0.6000 ****
10890 HC1    66.022000    3.067000  -34.489000 H    3630 GCA     0.4000 ****
10891 TC2    80.216000   11.451000  -47.510000 T    3631 GCA     0.6000 ****
10892 TC1    72.735000    9.961000  -41.044000 T    3631 GCA    -0.6000 ****
10893 HC1    65.254000    8.471000  -34.578000 H    3631 GCA     0.4000 ****
10894 TC2    78.128000   18.724000  -47.634000 T    3632 GCA     0.6000 ****
10895 TC1    70.938000   16.221000  -41.150000 T    3632 GCA    -0.6000 ****
10896 HC1    63.747000   13.718000  -34.667000 H    3632 GCA     0.4000 ****
10897 TC2    75.055000   25.638000  -47.757000 T    3633 GCA     0.6000 ****
10898 TC1    68.293000   22.172000  -41.257000 T    3633 GCA    -0.6000 ****
10899 HC1    61.530000   18.706000  -34.756000 H    3633 GCA     0.4000 ****
10900 TC2    71.055000   32.060000  -47.881000 T    3634 GCA     0.6000 ****
10901 TC1    64.850000   27.699000  -41.363000 T    3634 GCA    -0.6000 ****
10902 HC1    58.645000   23.339000  -34.845000 H    3634 GCA     0.4000 ****
10903 TC2    66.203000   37.865000  -48.004000 T    3635 GCA     0.6000 ****
10904 TC1    60.674000   32.696000  -41.469000 T    3635 GCA    -0.6000 ****
10905 HC1    55.144000   27.527000  -34.934000 H    3635 GCA     0.4000 ****
10906 TC2    60.592000   42.940000  -48.128000 T    3636 GCA     0.6000 ****
10907 TC1    55.844000   37.064000  -41.576000 T    3636 GCA    -0.6000 ****
10908 HC1    51.096000   31.188000  -35.024000 H    3636 GCA     0.4000 ****
10909 TC2    54.329000   47.185000  -48.251000 T    3637 GCA     0.6000 ****
10910 TC1    50.453000   40.717000  -41.682000 T    3637 GCA    -0.6000 ****
10911 HC1    46.578000   34.250000  -35.113000 H    3637 GCA     0.4000 ****
10912 TC2    47.535000   50.514000  -48.374000 T    3638 GCA     0.6000 ****
10913 TC1    44.606000   43.583000  -41.788000 T    3638 GCA    -0.6000 ****
10914 HC1    41.677000   36.652000  -35.202000 H    3638 GCA     0.4000 ****
10915 TC2    40.343000   52.861000  -48.498000 T    3639 GCA     0.6000 ****
10916 TC1    38.415000   45.603000  -41.894000 T    3639 GCA    -0.6000 ****
10917 HC1    36.488000   38.345000  -35.291000 H    3639 GCA     0.4000 ****
10918 TC2    32.892000   54.178000  -48.621000 T    3640 GCA     0.6000 ****
10919 TC1    32.003000   46.737000  -42.001000 T    3640 GCA    -0.6000 ****
10920 HC1    31.113000   39.295000  -35.380000 H    3640 GCA     0.4000 ****
10921 TC2    25.331000   54.436000  -48.745000 T    3641 GCA     0.6000 ****
10922 TC1    25.495000   46.959000  -42.107000 T    3641 GCA    -0.6000 ****
10923 HC1    25.658000   39.482000  -35.469000 H    3641 GCA     0.4000 ****
10924 TC2    17.809000   53.629000  -48.868000 T    3642 GCA     0.6000 ****
10925 TC1    19.020000   46.264000  -42.213000 T    3642 GCA    -0.6000 ****
10926 HC1    20.231000   38.899000  -35.558000 H    3642 GCA     0.4000 ****
10927 TC2    10.475000   51.770000  -48.992000 T    3643 GCA     0.6000 ****
10928 TC1    12.708000   44.664000  -42.319000 T    3643 GCA    -0.6000 ****
10929 HC1    14.941000   37.558000  -35.647000 H    3643 GCA     0.4000 ****
10930 TC2     3.478000   48.894000  -49.115000 T    3644 GCA     0.6000 ****
10931 TC1     6.685000   42.189000  -42.426000 T    3644 GCA    -0.6000 ****
10932 HC1     9.893000   35.483000  -35.736000 H    3644 GCA     0.4000 ****
10933 TC2    -3.042000   45.057000  -49.239000 T    3645 GCA     0.6000 ****
10934 TC1     1.073000   38.886000  -42.532000 T    3645 GCA    -0.6000 ****
10935 HC1     5.189000   32.715000  -35.825000 H    3645 GCA     0.4000 ****
10936 TC2    -8.953000   40.335000  -49.362000 T    3646 GCA     0.6000 ****
10937 TC1    -4.014000   34.822000  -42.638000 T    3646 GCA    -0.6000 ****
10938 HC1     0.925000   29.309000  -35.914000 H    3646 GCA     0.4000 ****
10939 TC2   -14.133000   34.821000  -49.486000 T    3647 GCA     0.6000 ****
10940 TC1    -8.472000   30.076000  -42.744000 T    3647 GCA    -0.6000 ****
10941 HC1    -2.812000   25.331000  -36.003000 H    3647 GCA     0.4000 ****
10942 TC2   -18.475000   28.626000  -49.609000 T    3648 GCA     0.6000 ****
10943 TC1   -12.209000   24.744000  -42.851000 T    3648 GCA    -0.6000 ****
10944 HC1    -5.944000   20.862000  -36.092000 H    3648 GCA     0.4000 ****
10945 TC2   -21.888000   21.875000  -49.733000 T    3649 GCA     0.6000 ****
10946 TC1   -15.148000   18.933000  -42.957000 T    3649 GCA    -0.6000 ****
10947 HC1    -8.407000   15.992000  -36.181000 H    3649 GCA     0.4000 ****
10948 TC2   -24.302000   14.706000  -49.856000 T    3650 GCA     0.6000 ****
10949 TC1   -17.225000   12.763000  -43.063000 T    3650 GCA    -0.6000 ****
10950 HC1   -10.148000   10.819000  -36.270000 H    3650 GCA     0.4000 ****
10951 TC2   -25.664000    7.265000  -49.980000 T    3651 GCA     0.6000 ****
10952 TC1   -18.397000    6.358000  -43.170000 T    3651 GCA    -0.6000 ****
10953 HC1   -11.131000    5.451000  -36.360000 H    3651 GCA     0.4000 ****
10954 TC2   -25.943000   -0.295000  -50.103000 T    3652 GCA     0.6000 ****
10955 TC1   -18.637000   -0.149000  -43.276000 T    3652 GCA    -0.6000 ****
10956 HC1   -11.332000   -0.003000  -36.449000 H    3652 GCA     0.4000 ****
10957 TC2   -25.131000   -7.816000  -50.226000 T    3653 GCA     0.6000 ****
10958 TC1   -17.939000   -6.622000  -43.382000 T    3653 GCA    -0.6000 ****
10959 HC1   -10.747000   -5.429000  -36.538000 H    3653 GCA     0.4000 ****
10960 TC2   -23.244000  -15.141000  -50.350000 T    3654 GCA     0.6000 ****
10961 TC1   -16.314000  -12.927000  -43.488000 T    3654 GCA    -0.6000 ****
10962 HC1    -9.385000  -10.713000  -36.627000 H    3654 GCA     0.4000 ****
10963 TC2   -20.317000  -22.117000  -50.473000 T    3655 GCA     0.6000 ****
10964 TC1   -13.796000  -18.931000  -43.595000 T    3655 GCA    -0.6000 ****
10965 HC1    -7.274000  -15.746000  -36.716000 H    3655 GCA     0.4000 ****
10966 TC2   -16.412000  -28.595000  -50.597000 T    3656 GCA     0.6000 ****
10967 TC1   -10.434000  -24.507000  -43.701000 T    3656 GCA    -0.6000 ****
10968 HC1    -4.456000  -20.419000  -36.805000 H    3656 GCA     0.4000 ****
10969 TC2   -11.607000  -34.438000  -50.720000 T    3657 GCA     0.6000 ****
10970 TC1    -6.298000  -29.536000  -43.807000 T    3657 GCA    -0.6000 ****
10971 HC1    -0.990000  -24.634000  -36.894000 H    3657 GCA     0.4000 ****
10972 TC2    -6.003000  -39.519000  -50.844000 T    3658 GCA     0.6000 ****
10973 TC1    -1.475000  -33.909000  -43.913000 T    3658 GCA    -0.6000 ****
10974 HC1     3.053000  -28.300000  -36.983000 H    3658 GCA     0.4000 ****
10975 TC2     0.281000  -43.729000  -50.967000 T    3659 GCA     0.6000 ****
10976 TC1     3.934000  -37.533000  -44.020000 T    3659 GCA    -0.6000 ****
10977 HC1     7.586000  -31.337000  -37.072000 H    3659 GCA     0.4000 ****
10978 TC2     7.113000  -46.975000  -51.091000 T    3660 GCA     0.6000 ****
10979 TC1     9.814000  -40.327000  -44.126000 T    3660 GCA    -0.6000 ****
10980 HC1    12.515000  -33.679000  -37.161000 H    3660 GCA     0.4000 ****
10981 TC2    14.347000  -49.185000  -51.214000 T    3661 GCA     0.6000 ****
10982 TC1    16.041000  -42.229000  -44.232000 T    3661 GCA    -0.6000 ****
10983 HC1    17.734000  -35.273000  -37.250000 H    3661 GCA     0.4000 ****
10984 TC2    21.827000  -50.309000  -51.338000 T    3662 GCA     0.6000 ****
10985 TC1    22.479000  -43.197000  -44.338000 T    3662 GCA    -0.6000 ****
10986 HC1    23.130000  -36.084000  -37.339000 H    3662 GCA     0.4000 ****
10987 TC2    29.391000  -50.320000  -51.461000 T    3663 GCA     0.6000 ****
10988 TC1    28.989000  -43.206000  -44.445000 T    3663 GCA    -0.6000 ****
10989 HC1    28.587000  -36.092000  -37.428000 H    3663 GCA     0.4000 ****
10990 TC2    36.874000  -49.215000  -51.585000 T    3664 GCA     0.6000 ****
10991 TC1    35.429000  -42.255000  -44.551000 T    3664 GCA    -0.6000 ****
10992 HC1    33.985000  -35.295000  -37.517000 H    3664 GCA     0.4000 ****
10993 TC2    44.111000  -47.016000  -51.708000 T    3665 GCA     0.6000 ****
10994 TC1    41.658000  -40.363000  -44.657000 T    3665 GCA    -0.6000 ****
10995 HC1    39.206000  -33.709000  -37.607000 H    3665 GCA     0.4000 ****
10996 TC2    50.942000  -43.769000  -51.831000 T    3666 GCA     0.6000 ****
10997 TC1    47.538000  -37.568000  -44.764000 T    3666 GCA    -0.6000 ****
10998 HC1    44.134000  -31.366000  -37.696000 H    3666 GCA     0.4000 ****
10999 TC2    57.214000  -39.543000  -51.955000 T    3667 GCA     0.6000 ****
11000 TC1    52.937000  -33.930000  -44.870000 T    3667 GCA    -0.6000 ****
11001 HC1    48.659000  -28.317000  -37.785000 H    3667 GCA     0.4000 ****
11002 TC2    62.788000  -34.430000  -52.078000 T    3668 GCA     0.6000 ****
11003 TC1    57.734000  -29.529000  -44.976000 T    3668 GCA    -0.6000 ****
11004 HC1    52.680000  -24.628000  -37.874000 H    3668 GCA     0.4000 ****
11005 TC2    67.535000  -28.542000  -52.202000 T    3669 GCA     0.6000 ****
11006 TC1    61.820000  -24.461000  -45.082000 T    3669 GCA    -0.6000 ****
11007 HC1    56.105000  -20.381000  -37.963000 H    3669 GCA     0.4000 ****
11008 TC2    71.348000  -22.010000  -52.325000 T    3670 GCA     0.6000 ****
11009 TC1    65.102000  -18.839000  -45.189000 T    3670 GCA    -0.6000 ****
11010 HC1    58.856000  -15.669000  -38.052000 H    3670 GCA     0.4000 ****
11011 TC2    74.137000  -14.980000  -52.449000 T    3671 GCA     0.6000 ****
11012 TC1    67.503000  -12.789000  -45.295000 T    3671 GCA    -0.6000 ****
11013 HC1    60.868000  -10.597000  -38.141000 H    3671 GCA     0.4000 ****
11014 TC2    75.838000   -7.611000  -52.572000 T    3672 GCA     0.6000 ****
11015 TC1    68.967000   -6.446000  -45.401000 T    3672 GCA    -0.6000 ****
11016 HC1    62.095000   -5.281000  -38.230000 H    3672 GCA     0.4000 ****
11017 TC2    76.408000   -0.070000  -52.696000 T    3673 GCA     0.6000 ****
11018 TC1    69.457000    0.045000  -45.507000 T    3673 GCA    -0.6000 ****
11019 HC1    62.506000    0.160000  -38.319000 H    3673 GCA     0.4000 ****
11020 TC2    75.832000    7.471000  -52.819000 T    3674 GCA     0.6000 ****
11021 TC1    68.961000    6.536000  -45.614000 T    3674 GCA    -0.6000 ****
11022 HC1    62.090000    5.600000  -38.408000 H    3674 GCA     0.4000 ****
11023 TC2    74.119000   14.838000  -52.943000 T    3675 GCA     0.6000 ****
11024 TC1    67.487000   12.876000  -45.720000 T    3675 GCA    -0.6000 ****
11025 HC1    60.855000   10.914000  -38.497000 H    3675 GCA     0.4000 ****
11026 TC2    71.307000   21.858000  -53.066000 T    3676 GCA     0.6000 ****
11027 TC1    65.067000   18.919000  -45.826000 T    3676 GCA    -0.6000 ****
11028 HC1    58.826000   15.979000  -38.586000 H    3676 GCA     0.4000 ****
11029 TC2    67.459000   28.368000  -53.190000 T    3677 GCA     0.6000 ****
11030 TC1    61.755000   24.522000  -45.932000 T    3677 GCA    -0.6000 ****
11031 HC1    56.050000   20.676000  -38.675000 H    3677 GCA     0.4000 ****
11032 TC2    62.662000   34.214000  -53.313000 T    3678 GCA     0.6000 ****
11033 TC1    57.625000   29.554000  -46.039000 T    3678 GCA    -0.6000 ****
11034 HC1    52.589000   24.893000  -38.764000 H    3678 GCA     0.4000 ****
11035 TC2    57.026000   39.257000  -53.436000 T    3679 GCA     0.6000 ****
11036 TC1    52.775000   33.894000  -46.145000 T    3679 GCA    -0.6000 ****
11037 HC1    48.523000   28.531000  -38.853000 H    3679 GCA     0.4000 ****
11038 TC2    50.683000   43.374000  -53.560000 T    3680 GCA     0.6000 ****
11039 TC1    47.315000   37.438000  -46.251000 T    3680 GCA    -0.6000 ****
11040 HC1    43.947000   31.501000  -38.943000 H    3680 GCA     0.4000 ****
11041 TC2    43.782000   46.466000  -53.683000 T    3681 GCA     0.6000 ****
11042 TC1    41.375000   40.099000  -46.358000 T    3681 GCA    -0.6000 ****
11043 HC1    38.969000   33.732000  -39.032000 H    3681 GCA     0.4000 ****
11044 TC2    36.486000   48.456000  -53.807000 T    3682 GCA     0.6000 ****
11045 TC1    35.096000   41.811000  -46.464000 T    3682 GCA    -0.6000 ****
11046 HC1    33.706000   35.167000  -39.121000 H    3682 GCA     0.4000 ****
11047 TC2    28.970000   49.292000  -53.930000 T    3683 GCA     0.6000 ****
11048 TC1    28.627000   42.531000  -46.570000 T    3683 GCA    -0.6000 ****
11049 HC1    28.284000   35.771000  -39.210000 H    3683 GCA     0.4000 ****
11050 TC2    21.416000   48.952000  -54.054000 T    3684 GCA     0.6000 ****
11051 TC1    22.125000   42.239000  -46.676000 T    3684 GCA    -0.6000 ****
11052 HC1    22.834000   35.525000  -39.299000 H    3684 GCA     0.4000 ****
11053 TC2    14.007000   47.441000  -54.177000 T    3685 GCA     0.6000 ****
11054 TC1    15.748000   40.938000  -46.783000 T    3685 GCA    -0.6000 ****
11055 HC1    17.489000   34.435000  -39.388000 H    3685 GCA     0.4000 ****
11056 TC2     6.925000   44.792000  -54.301000 T    3686 GCA     0.6000 ****
11057 TC1     9.652000   38.658000  -46.889000 T    3686 GCA    -0.6000 ****
11058 HC1    12.379000   32.524000  -39.477000 H    3686 GCA     0.4000 ****
11059 TC2     0.344000   41.068000  -54.424000 T    3687 GCA     0.6000 ****
11060 TC1     3.988000   35.452000  -46.995000 T    3687 GCA    -0.6000 ****
11061 HC1     7.632000   29.837000  -39.566000 H    3687 GCA     0.4000 ****
11062 TC2    -5.570000   36.357000  -54.548000 T    3688 GCA     0.6000 ****
11063 TC1    -1.103000   31.398000  -47.101000 T    3688 GCA    -0.6000 ****
11064 HC1     3.365000   26.439000  -39.655000 H    3688 GCA     0.4000 ****
11065 TC2   -10.670000   30.774000  -54.671000 T    3689 GCA     0.6000 ****
11066 TC1    -5.492000   26.593000  -47.208000 T    3689 GCA    -0.6000 ****
11067 HC1    -0.314000   22.411000  -39.744000 H    3689 GCA     0.4000 ****
11068 TC2   -14.824000   24.457000  -54.795000 T    3690 GCA     0.6000 ****
11069 TC1    -9.068000   21.155000  -47.314000 T    3690 GCA    -0.6000 ****
11070 HC1    -3.311000   17.854000  -39.833000 H    3690 GCA     0.4000 ****
11071 TC2   -17.927000   17.562000  -54.918000 T    3691 GCA     0.6000 ****
11072 TC1   -11.738000   15.220000  -47.420000 T    3691 GCA    -0.6000 ****
11073 HC1    -5.549000   12.879000  -39.922000 H    3691 GCA     0.4000 ****
11074 TC2   -19.895000   10.261000  -55.041000 T    3692 GCA     0.6000 ****
11075 TC1   -13.432000    8.937000  -47.526000 T    3692 GCA    -0.6000 ****
11076 HC1    -6.969000    7.613000  -40.011000 H    3692 GCA     0.4000 ****
11077 TC2   -20.676000    2.741000  -55.165000 T    3693 GCA     0.6000 ****
11078 TC1   -14.104000    2.464000  -47.633000 T    3693 GCA    -0.6000 ****
11079 HC1    -7.533000    2.188000  -40.100000 H    3693 GCA     0.4000 ****
11080 TC2   -20.247000   -4.807000  -55.288000 T    3694 GCA     0.6000 ****
11081 TC1   -13.735000   -4.033000  -47.739000 T    3694 GCA    -0.6000 ****
11082 HC1    -7.223000   -3.258000  -40.190000 H    3694 GCA     0.4000 ****
11083 TC2   -18.614000  -12.189000  -55.412000 T    3695 GCA     0.6000 ****
11084 TC1   -12.329000  -10.386000  -47.845000 T    3695 GCA    -0.6000 ****
11085 HC1    -6.045000   -8.584000  -40.279000 H    3695 GCA     0.4000 ****
11086 TC2   -15.817000  -19.213000  -55.535000 T    3696 GCA     0.6000 ****
11087 TC1    -9.922000  -16.432000  -47.951000 T    3696 GCA    -0.6000 ****
11088 HC1    -4.027000  -13.651000  -40.368000 H    3696 GCA     0.4000 ****
11089 TC2   -11.925000  -25.694000  -55.659000 T    3697 GCA     0.6000 ****
11090 TC1    -6.572000  -22.010000  -48.058000 T    3697 GCA    -0.6000 ****
11091 HC1    -1.219000  -18.327000  -40.457000 H    3697 GCA     0.4000 ****
11092 TC2    -7.037000  -31.462000  -55.782000 T    3698 GCA     0.6000 ****
11093 TC1    -2.365000  -26.974000  -48.164000 T    3698 GCA    -0.6000 ****
11094 HC1     2.307000  -22.487000  -40.546000 H    3698 GCA     0.4000 ****
11095 TC2    -1.278000  -36.360000  -55.906000 T    3699 GCA     0.6000 ****
11096 TC1     2.592000  -31.190000  -48.270000 T    3699 GCA    -0.6000 ****
11097 HC1     6.462000  -26.021000  -40.635000 H    3699 GCA     0.4000 ****
11098 TC2     5.200000  -40.257000  -56.029000 T    3700 GCA     0.6000 ****
11099 TC1     8.167000  -34.545000  -48.377000 T    3700 GCA    -0.6000 ****
11100 HC1    11.135000  -28.832000  -40.724000 H    3700 GCA     0.4000 ****
11101 TC2    12.226000  -43.045000  -56.153000 T    3701 GCA     0.6000 ****
11102 TC1    14.215000  -36.944000  -48.483000 T    3701 GCA    -0.6000 ****
11103 HC1    16.204000  -30.844000  -40.813000 H    3701 GCA     0.4000 ****
11104 TC2    19.614000  -44.646000  -56.276000 T    3702 GCA     0.6000 ****
11105 TC1    20.574000  -38.322000  -48.589000 T    3702 GCA    -0.6000 ****
11106 HC1    21.534000  -31.998000  -40.902000 H    3702 GCA     0.4000 ****
11107 TC2    27.165000  -45.012000  -56.400000 T    3703 GCA     0.6000 ****
11108 TC1    27.073000  -38.638000  -48.695000 T    3703 GCA    -0.6000 ****
11109 HC1    26.981000  -32.263000  -40.991000 H    3703 GCA     0.4000 ****
11110 TC2    34.673000  -44.130000  -56.523000 T    3704 GCA     0.6000 ****
11111 TC1    33.535000  -37.878000  -48.802000 T    3704 GCA    -0.6000 ****
11112 HC1    32.397000  -31.627000  -41.080000 H    3704 GCA     0.4000 ****
11113 TC2    41.931000  -42.020000  -56.646000 T    3705 GCA     0.6000 ****
11114 TC1    39.782000  -36.062000  -48.908000 T    3705 GCA    -0.6000 ****
11115 HC1    37.634000  -30.104000  -41.169000 H    3705 GCA     0.4000 ****
11116 TC2    48.739000  -38.737000  -56.770000 T    3706 GCA     0.6000 ****
11117 TC1    45.642000  -33.236000  -49.014000 T    3706 GCA    -0.6000 ****
11118 HC1    42.545000  -27.735000  -41.258000 H    3706 GCA     0.4000 ****
11119 TC2    54.907000  -34.366000  -56.893000 T    3707 GCA     0.6000 ****
11120 TC1    50.951000  -29.475000  -49.120000 T    3707 GCA    -0.6000 ****
11121 HC1    46.995000  -24.583000  -41.347000 H    3707 GCA     0.4000 ****
11122 TC2    60.259000  -29.029000  -57.017000 T    3708 GCA     0.6000 ****
11123 TC1    55.557000  -24.880000  -49.227000 T    3708 GCA    -0.6000 ****
11124 HC1    50.856000  -20.732000  -41.436000 H    3708 GCA     0.4000 ****
11125 TC2    64.641000  -22.871000  -57.140000 T    3709 GCA     0.6000 ****
11126 TC1    59.329000  -19.580000  -49.333000 T    3709 GCA    -0.6000 ****
11127 HC1    54.017000  -16.289000  -41.526000 H    3709 GCA     0.4000 ****
11128 TC2    67.927000  -16.064000  -57.264000 T    3710 GCA     0.6000 ****
11129 TC1    62.157000  -13.721000  -49.439000 T    3710 GCA    -0.6000 ****
11130 HC1    56.388000  -11.379000  -41.615000 H    3710 GCA     0.4000 ****
11131 TC2    70.019000   -8.801000  -57.387000 T    3711 GCA     0.6000 ****
11132 TC1    63.958000   -7.470000  -49.545000 T    3711 GCA    -0.6000 ****
11133 HC1    57.897000   -6.139000  -41.704000 H    3711 GCA     0.4000 ****
11134 TC2    70.852000   -1.289000  -57.511000 T    3712 GCA     0.6000 ****
11135 TC1    64.675000   -1.005000  -49.652000 T    3712 GCA    -0.6000 ****
11136 HC1    58.498000   -0.720000  -41.793000 H    3712 GCA     0.4000 ****
11137 TC2    70.398000    6.255000  -57.634000 T    3713 GCA     0.6000 ****
11138 TC1    64.284000    5.489000  -49.758000 T    3713 GCA    -0.6000 ****
11139 HC1    58.171000    4.723000  -41.882000 H    3713 GCA     0.4000 ****
11140 TC2    68.666000   13.611000  -57.758000 T    3714 GCA     0.6000 ****
11141 TC1    62.794000   11.821000  -49.864000 T    3714 GCA    -0.6000 ****
11142 HC1    56.921000   10.030000  -41.971000 H    3714 GCA     0.4000 ****
11143 TC2    65.703000   20.564000  -57.881000 T    3715 GCA     0.6000 ****
11144 TC1    60.243000   17.804000  -49.971000 T    3715 GCA    -0.6000 ****
11145 HC1    54.783000   15.045000  -42.060000 H    3715 GCA     0.4000 ****
11146 TC2    61.591000   26.904000  -58.005000 T    3716 GCA     0.6000 ****
11147 TC1    56.704000   23.262000  -50.077000 T    3716 GCA    -0.6000 ****
11148 HC1    51.817000   19.619000  -42.149000 H    3716 GCA     0.4000 ****
11149 TC2    56.449000   32.442000  -58.128000 T    3717 GCA     0.6000 ****
11150 TC1    52.278000   28.028000  -50.183000 T    3717 GCA    -0.6000 ****
11151 HC1    48.107000   23.615000  -42.238000 H    3717 GCA     0.4000 ****
11152 TC2    50.428000   37.008000  -58.252000 T    3718 GCA     0.6000 ****
11153 TC1    47.096000   31.959000  -50.289000 T    3718 GCA    -0.6000 ****
11154 HC1    43.763000   26.909000  -42.327000 H    3718 GCA     0.4000 ****
11155 TC2    43.706000   40.461000  -58.375000 T    3719 GCA     0.6000 ****
11156 TC1    41.310000   34.931000  -50.396000 T    3719 GCA    -0.6000 ****
11157 HC1    38.914000   29.400000  -42.416000 H    3719 GCA     0.4000 ****
11158 TC2    36.486000   42.692000  -58.498000 T    3720 GCA     0.6000 ****
11159 TC1    35.096000   36.850000  -50.502000 T    3720 GCA    -0.6000 ****
11160 HC1    33.706000   31.009000  -42.505000 H    3720 GCA     0.4000 ****
11161 TC2    28.988000   43.626000  -58.622000 T    3721 GCA     0.6000 ****
11162 TC1    28.642000   37.655000  -50.608000 T    3721 GCA    -0.6000 ****
11163 HC1    28.296000   31.683000  -42.594000 H    3721 GCA     0.4000 ****
11164 TC2    21.442000   43.231000  -58.745000 T    3722 GCA     0.6000 ****
11165 TC1    22.147000   37.315000  -50.714000 T    3722 GCA    -0.6000 ****
11166 HC1    22.852000   31.398000  -42.683000 H    3722 GCA     0.4000 ****
11167 TC2    14.084000   41.515000  -58.869000 T    3723 GCA     0.6000 ****
11168 TC1    15.814000   35.837000  -50.821000 T    3723 GCA    -0.6000 ****
11169 HC1    17.544000   30.160000  -42.773000 H    3723 GCA     0.4000 ****
11170 TC2     7.145000   38.525000  -58.992000 T    3724 GCA     0.6000 ****
11171 TC1     9.841000   33.264000  -50.927000 T    3724 GCA    -0.6000 ****
11172 HC1    12.538000   28.003000  -42.862000 H    3724 GCA     0.4000 ****
11173 TC2     0.847000   34.351000  -59.116000 T    3725 GCA     0.6000 ****
11174 TC1     4.421000   29.671000  -51.033000 T    3725 GCA    -0.6000 ****
11175 HC1     7.994000   24.992000  -42.951000 H    3725 GCA     0.4000 ****
11176 TC2    -4.607000   29.123000  -59.239000 T    3726 GCA     0.6000 ****
11177 TC1    -0.274000   25.171000  -51.139000 T    3726 GCA    -0.6000 ****
11178 HC1     4.060000   21.220000  -43.040000 H    3726 GCA     0.4000 ****
11179 TC2    -9.039000   23.004000  -59.363000 T    3727 GCA     0.6000 ****
11180 TC1    -4.088000   19.905000  -51.246000 T    3727 GCA    -0.6000 ****
11181 HC1     0.863000   16.805000  -43.129000 H    3727 GCA     0.4000 ****
11182 TC2   -12.299000   16.189000  -59.486000 T    3728 GCA     0.6000 ****
11183 TC1    -6.894000   14.039000  -51.352000 T    3728 GCA    -0.6000 ****
11184 HC1    -1.489000   11.889000  -43.218000 H    3728 GCA     0.4000 ****
11185 TC2   -14.278000    8.898000  -59.610000 T    3729 GCA     0.6000 ****
11186 TC1    -8.597000    7.763000  -51.458000 T    3729 GCA    -0.6000 ****
11187 HC1    -2.917000    6.629000  -43.307000 H    3729 GCA     0.4000 ****
11188 TC2   -14.904000    1.369000  -59.733000 T    3730 GCA     0.6000 ****
11189 TC1    -9.136000    1.284000  -51.565000 T    3730 GCA    -0.6000 ****
11190 HC1    -3.368000    1.198000  -43.396000 H    3730 GCA     0.4000 ****
11191 TC2   -14.152000   -6.147000  -59.857000 T    3731 GCA     0.6000 ****
11192 TC1    -8.489000   -5.186000  -51.671000 T    3731 GCA    -0.6000 ****
11193 HC1    -2.826000   -4.225000  -43.485000 H    3731 GCA     0.4000 ****
11194 TC2   -12.040000  -13.400000  -59.980000 T    3732 GCA     0.6000 ****
11195 TC1    -6.671000  -11.429000  -51.777000 T    3732 GCA    -0.6000 ****
11196 HC1    -1.302000   -9.457000  -43.574000 H    3732 GCA     0.4000 ****
11197 TC2    -8.635000  -20.143000  -60.103000 T    3733 GCA     0.6000 ****
11198 TC1    -3.741000  -17.232000  -51.883000 T    3733 GCA    -0.6000 ****
11199 HC1     1.154000  -14.322000  -43.663000 H    3733 GCA     0.4000 ****
11200 TC2    -4.048000  -26.144000  -60.227000 T    3734 GCA     0.6000 ****
11201 TC1     0.208000  -22.397000  -51.990000 T    3734 GCA    -0.6000 ****
11202 HC1     4.464000  -18.651000  -43.752000 H    3734 GCA     0.4000 ****
11203 TC2     1.570000  -31.192000  -60.350000 T    3735 GCA     0.6000 ****
11204 TC1     5.043000  -26.743000  -52.096000 T    3735 GCA    -0.6000 ****
11205 HC1     8.517000  -22.293000  -43.841000 H    3735 GCA     0.4000 ****
11206 TC2     8.028000  -35.110000  -60.474000 T    3736 GCA     0.6000 ****
11207 TC1    10.601000  -30.115000  -52.202000 T    3736 GCA    -0.6000 ****
11208 HC1    13.175000  -25.119000  -43.930000 H    3736 GCA     0.4000 ****
11209 TC2    15.102000  -37.755000  -60.597000 T    3737 GCA     0.6000 ****
11210 TC1    16.690000  -32.391000  -52.308000 T    3737 GCA    -0.6000 ****
11211 HC1    18.279000  -27.028000  -44.019000 H    3737 GCA     0.4000 ****
11212 TC2    22.546000  -39.028000  -60.721000 T    3738 GCA     0.6000 ****
11213 TC1    23.098000  -33.487000  -52.415000 T    3738 GCA    -0.6000 ****
11214 HC1    23.649000  -27.946000  -44.109000 H    3738 GCA     0.4000 ****
11215 TC2    30.097000  -38.877000  -60.844000 T    3739 GCA     0.6000 ****
11216 TC1    29.597000  -33.357000  -52.521000 T    3739 GCA    -0.6000 ****
11217 HC1    29.096000  -27.837000  -44.198000 H    3739 GCA     0.4000 ****
11218 TC2    37.483000  -37.302000  -60.968000 T    3740 GCA     0.6000 ****
11219 TC1    35.954000  -32.001000  -52.627000 T    3740 GCA    -0.6000 ****
11220 HC1    34.425000  -26.701000  -44.287000 H    3740 GCA     0.4000 ****
11221 TC2    44.435000  -34.353000  -61.091000 T    3741 GCA     0.6000 ****
11222 TC1    41.937000  -29.463000  -52.733000 T    3741 GCA    -0.6000 ****
11223 HC1    39.440000  -24.573000  -44.376000 H    3741 GCA     0.4000 ****
11224 TC2    50.696000  -30.132000  -61.215000 T    3742 GCA     0.6000 ****
11225 TC1    47.327000  -25.830000  -52.840000 T    3742 GCA    -0.6000 ****
11226 HC1    43.957000  -21.528000  -44.465000 H    3742 GCA     0.4000 ****
11227 TC2    56.032000  -24.789000  -61.338000 T    3743 GCA     0.6000 ****
11228 TC1    51.919000  -21.231000  -52.946000 T    3743 GCA    -0.6000 ****
11229 HC1    47.807000  -17.673000  -44.554000 H    3743 GCA     0.4000 ****
11230 TC2    60.239000  -18.519000  -61.462000 T    3744 GCA     0.6000 ****
11231 TC1    55.540000  -15.834000  -53.052000 T    3744 GCA    -0.6000 ****
11232 HC1    50.841000  -13.150000  -44.643000 H    3744 GCA     0.4000 ****
11233 TC2    63.152000  -11.553000  -61.585000 T    3745 GCA     0.6000 ****
11234 TC1    58.048000   -9.839000  -53.159000 T    3745 GCA    -0.6000 ****
11235 HC1    52.943000   -8.124000  -44.732000 H    3745 GCA     0.4000 ****
11236 TC2    64.655000   -4.154000  -61.708000 T    3746 GCA     0.6000 ****
11237 TC1    59.341000   -3.470000  -53.265000 T    3746 GCA    -0.6000 ****
11238 HC1    54.027000   -2.787000  -44.821000 H    3746 GCA     0.4000 ****
11239 TC2    64.683000    3.396000  -61.832000 T    3747 GCA     0.6000 ****
11240 TC1    59.365000    3.028000  -53.371000 T    3747 GCA    -0.6000 ****
11241 HC1    54.047000    2.660000  -44.910000 H    3747 GCA     0.4000 ****
11242 TC2    63.227000   10.804000  -61.955000 T    3748 GCA     0.6000 ****
11243 TC1    58.112000    9.404000  -53.477000 T    3748 GCA    -0.6000 ****
11244 HC1    52.997000    8.004000  -44.999000 H    3748 GCA     0.4000 ****
11245 TC2    60.338000   17.778000  -62.079000 T    3749 GCA     0.6000 ****
11246 TC1    55.625000   15.407000  -53.584000 T    3749 GCA    -0.6000 ****
11247 HC1    50.913000   13.035000  -45.088000 H    3749 GCA     0.4000 ****
11248 TC2    56.122000   24.040000  -62.202000 T    3750 GCA     0.6000 ****
11249 TC1    51.997000   20.796000  -53.690000 T    3750 GCA    -0.6000 ****
11250 HC1    47.871000   17.553000  -45.177000 H    3750 GCA     0.4000 ****
11251 TC2    50.742000   29.335000  -62.326000 T    3751 GCA     0.6000 ****
11252 TC1    47.366000   25.354000  -53.796000 T    3751 GCA    -0.6000 ****
11253 HC1    43.990000   21.373000  -45.266000 H    3751 GCA     0.4000 ****
11254 TC2    44.410000   33.443000  -62.449000 T    3752 GCA     0.6000 ****
11255 TC1    41.916000   28.890000  -53.902000 T    3752 GCA    -0.6000 ****
11256 HC1    39.422000   24.337000  -45.356000 H    3752 GCA     0.4000 ****
11257 TC2    37.380000   36.190000  -62.573000 T    3753 GCA     0.6000 ****
11258 TC1    35.865000   31.254000  -54.009000 T    3753 GCA    -0.6000 ****
11259 HC1    34.350000   26.318000  -45.445000 H    3753 GCA     0.4000 ****
11260 TC2    29.939000   37.455000  -62.696000 T    3754 GCA     0.6000 ****
11261 TC1    29.461000   32.343000  -54.115000 T    3754 GCA    -0.6000 ****
11262 HC1    28.983000   27.231000  -45.534000 H    3754 GCA     0.4000 ****
11263 TC2    22.397000   37.178000  -62.820000 T    3755 GCA     0.6000 ****
11264 TC1    22.969000   32.104000  -54.221000 T    3755 GCA    -0.6000 ****
11265 HC1    23.542000   27.031000  -45.623000 H    3755 GCA     0.4000 ****
11266 TC2    15.073000   35.360000  -62.943000 T    3756 GCA     0.6000 ****
11267 TC1    16.665000   30.540000  -54.327000 T    3756 GCA    -0.6000 ****
11268 HC1    18.258000   25.720000  -45.712000 H    3756 GCA     0.4000 ****
11269 TC2     8.280000   32.073000  -63.067000 T    3757 GCA     0.6000 ****
11270 TC1    10.819000   27.710000  -54.434000 T    3757 GCA    -0.6000 ****
11271 HC1    13.357000   23.348000  -45.801000 H    3757 GCA     0.4000 ****
11272 TC2     2.317000   27.449000  -63.190000 T    3758 GCA     0.6000 ****
11273 TC1     5.686000   23.731000  -54.540000 T    3758 GCA    -0.6000 ****
11274 HC1     9.055000   20.012000  -45.890000 H    3758 GCA     0.4000 ****
11275 TC2    -2.551000   21.684000  -63.313000 T    3759 GCA     0.6000 ****
11276 TC1     1.496000   18.769000  -54.646000 T    3759 GCA    -0.6000 ****
11277 HC1     5.543000   15.854000  -45.979000 H    3759 GCA     0.4000 ****
11278 TC2    -6.102000   15.027000  -63.437000 T    3760 GCA     0.6000 ****
11279 TC1    -1.560000   13.039000  -54.752000 T    3760 GCA    -0.6000 ****
11280 HC1     2.982000   11.051000  -46.068000 H    3760 GCA     0.4000 ****
11281 TC2    -8.169000    7.772000  -63.560000 T    3761 GCA     0.6000 ****
11282 TC1    -3.339000    6.794000  -54.859000 T    3761 GCA    -0.6000 ****
11283 HC1     1.490000    5.817000  -46.157000 H    3761 GCA     0.4000 ****
11284 TC2    -8.649000    0.243000  -63.684000 T    3762 GCA     0.6000 ****
11285 TC1    -3.753000    0.314000  -54.965000 T    3762 GCA    -0.6000 ****
11286 HC1     1.144000    0.385000  -46.246000 H    3762 GCA     0.4000 ****
11287 TC2    -7.512000   -7.214000  -63.807000 T    3763 GCA     0.6000 ****
11288 TC1    -2.774000   -6.105000  -55.071000 T    3763 GCA    -0.6000 ****
11289 HC1     1.965000   -4.995000  -46.335000 H    3763 GCA     0.4000 ****
11290 TC2    -4.799000  -14.253000  -63.931000 T    3764 GCA     0.6000 ****
11291 TC1    -0.439000  -12.162000  -55.178000 T    3764 GCA    -0.6000 ****
11292 HC1     3.922000  -10.072000  -46.424000 H    3764 GCA     0.4000 ****
11293 TC2    -0.629000  -20.538000  -64.054000 T    3765 GCA     0.6000 ****
11294 TC1     3.150000  -17.572000  -55.284000 T    3765 GCA    -0.6000 ****
11295 HC1     6.930000  -14.606000  -46.513000 H    3765 GCA     0.4000 ****
11296 TC2     4.808000  -25.765000  -64.178000 T    3766 GCA     0.6000 ****
11297 TC1     7.830000  -22.071000  -55.390000 T    3766 GCA    -0.6000 ****
11298 HC1    10.852000  -18.378000  -46.602000 H    3766 GCA     0.4000 ****
11299 TC2    11.257000  -29.675000  -64.301000 T    3767 GCA     0.6000 ****
11300 TC1    13.381000  -25.437000  -55.496000 T    3767 GCA    -0.6000 ****
11301 HC1    15.504000  -21.198000  -46.692000 H    3767 GCA     0.4000 ****
11302 TC2    18.408000  -32.068000  -64.425000 T    3768 GCA     0.6000 ****
11303 TC1    19.536000  -27.496000  -55.603000 T    3768 GCA    -0.6000 ****
11304 HC1    20.664000  -22.924000  -46.781000 H    3768 GCA     0.4000 ****
11305 TC2    25.911000  -32.814000  -64.548000 T    3769 GCA     0.6000 ****
11306 TC1    25.994000  -28.138000  -55.709000 T    3769 GCA    -0.6000 ****
11307 HC1    26.077000  -23.463000  -46.870000 H    3769 GCA     0.4000 ****
11308 TC2    33.391000  -31.866000  -64.672000 T    3770 GCA     0.6000 ****
11309 TC1    32.432000  -27.322000  -55.815000 T    3770 GCA    -0.6000 ****
11310 HC1    31.473000  -22.779000  -46.959000 H    3770 GCA     0.4000 ****
11311 TC2    40.466000  -29.260000  -64.795000 T    3771 GCA     0.6000 ****
11312 TC1    38.521000  -25.080000  -55.921000 T    3771 GCA    -0.6000 ****
11313 HC1    36.577000  -20.899000  -47.048000 H    3771 GCA     0.4000 ****
11314 TC2    46.766000  -25.121000  -64.918000 T    3772 GCA     0.6000 ****
11315 TC1    43.944000  -21.517000  -56.028000 T    3772 GCA    -0.6000 ****
11316 HC1    41.122000  -17.913000  -47.137000 H    3772 GCA     0.4000 ****
11317 TC2    51.956000  -19.654000  -65.042000 T    3773 GCA     0.6000 ****
11318 TC1    48.411000  -16.811000  -56.134000 T    3773 GCA    -0.6000 ****
11319 HC1    44.866000  -13.969000  -47.226000 H    3773 GCA     0.4000 ****
11320 TC2    55.751000  -13.141000  -65.165000 T    3774 GCA     0.6000 ****
11321 TC1    51.678000  -11.206000  -56.240000 T    3774 GCA    -0.6000 ****
11322 HC1    47.604000   -9.271000  -47.315000 H    3774 GCA     0.4000 ****
11323 TC2    57.937000   -5.928000  -65.289000 T    3775 GCA     0.6000 ****
11324 TC1    53.559000   -4.998000  -56.346000 T    3775 GCA    -0.6000 ****
11325 HC1    49.181000   -4.067000  -47.404000 H    3775 GCA     0.4000 ****
11326 TC2    58.380000    1.595000  -65.412000 T    3776 GCA     0.6000 ****
11327 TC1    53.940000    1.477000  -56.453000 T    3776 GCA    -0.6000 ****
11328 HC1    49.501000    1.360000  -47.493000 H    3776 GCA     0.4000 ****
11329 TC2    57.045000    9.011000  -65.536000 T    3777 GCA     0.6000 ****
11330 TC1    52.791000    7.861000  -56.559000 T    3777 GCA    -0.6000 ****
11331 HC1    48.537000    6.710000  -47.582000 H    3777 GCA     0.4000 ****
11332 TC2    53.992000   15.899000  -65.659000 T    3778 GCA     0.6000 ****
11333 TC1    50.163000   13.790000  -56.665000 T    3778 GCA    -0.6000 ****
11334 HC1    46.335000   11.680000  -47.671000 H    3778 GCA     0.4000 ****
11335 TC2    49.385000   21.860000  -65.783000 T    3779 GCA     0.6000 ****
11336 TC1    46.198000   18.920000  -56.772000 T    3779 GCA    -0.6000 ****
11337 HC1    43.011000   15.980000  -47.760000 H    3779 GCA     0.4000 ****
11338 TC2    43.480000   26.538000  -65.906000 T    3780 GCA     0.6000 ****
11339 TC1    41.116000   22.946000  -56.878000 T    3780 GCA    -0.6000 ****
11340 HC1    38.751000   19.355000  -47.849000 H    3780 GCA     0.4000 ****
11341 TC2    36.618000   29.644000  -66.030000 T    3781 GCA     0.6000 ****
11342 TC1    35.209000   25.620000  -56.984000 T    3781 GCA    -0.6000 ****
11343 HC1    33.801000   21.596000  -47.939000 H    3781 GCA     0.4000 ****
11344 TC2    29.206000   30.980000  -66.153000 T    3782 GCA     0.6000 ****
11345 TC1    28.830000   26.769000  -57.090000 T    3782 GCA    -0.6000 ****
11346 HC1    28.454000   22.559000  -48.028000 H    3782 GCA     0.4000 ****
11347 TC2    21.694000   30.447000  -66.277000 T    3783 GCA     0.6000 ****
11348 TC1    22.364000   26.311000  -57.197000 T    3783 GCA    -0.6000 ****
11349 HC1    23.034000   22.175000  -48.117000 H    3783 GCA     0.4000 ****
11350 TC2    14.552000   28.063000  -66.400000 T    3784 GCA     0.6000 ****
11351 TC1    16.217000   24.259000  -57.303000 T    3784 GCA    -0.6000 ****
11352 HC1    17.882000   20.456000  -48.206000 H    3784 GCA     0.4000 ****
11353 TC2     8.236000   23.966000  -66.523000 T    3785 GCA     0.6000 ****
11354 TC1    10.781000   20.732000  -57.409000 T    3785 GCA    -0.6000 ****
11355 HC1    13.325000   17.499000  -48.295000 H    3785 GCA     0.4000 ****
11356 TC2     3.163000   18.404000  -66.647000 T    3786 GCA     0.6000 ****
11357 TC1     6.414000   15.945000  -57.515000 T    3786 GCA    -0.6000 ****
11358 HC1     9.666000   13.487000  -48.384000 H    3786 GCA     0.4000 ****
11359 TC2    -0.321000   11.732000  -66.770000 T    3787 GCA     0.6000 ****
11360 TC1     3.415000   10.203000  -57.622000 T    3787 GCA    -0.6000 ****
11361 HC1     7.152000    8.674000  -48.473000 H    3787 GCA     0.4000 ****
11362 TC2    -1.968000    4.389000  -66.894000 T    3788 GCA     0.6000 ****
11363 TC1     1.998000    3.883000  -57.728000 T    3788 GCA    -0.6000 ****
11364 HC1     5.964000    3.376000  -48.562000 H    3788 GCA     0.4000 ****
11365 TC2    -1.648000   -3.129000  -67.017000 T    3789 GCA     0.6000 ****
11366 TC1     2.273000   -2.588000  -57.834000 T    3789 GCA    -0.6000 ****
11367 HC1     6.195000   -2.047000  -48.651000 H    3789 GCA     0.4000 ****
11368 TC2     0.635000  -10.297000  -67.141000 T    3790 GCA     0.6000 ****
11369 TC1     4.239000   -8.758000  -57.940000 T    3790 GCA    -0.6000 ****
11370 HC1     7.842000   -7.219000  -48.740000 H    3790 GCA     0.4000 ****
11371 TC2     4.738000  -16.602000  -67.264000 T    3791 GCA     0.6000 ****
11372 TC1     7.770000  -14.185000  -58.047000 T    3791 GCA    -0.6000 ****
11373 HC1    10.802000  -11.767000  -48.829000 H    3791 GCA     0.4000 ****
11374 TC2    10.379000  -21.577000  -67.388000 T    3792 GCA     0.6000 ****
11375 TC1    12.625000  -18.466000  -58.153000 T    3792 GCA    -0.6000 ****
11376 HC1    14.872000  -15.356000  -48.918000 H    3792 GCA     0.4000 ****
11377 TC2    17.155000  -24.837000  -67.511000 T    3793 GCA     0.6000 ****
11378 TC1    18.458000  -21.272000  -58.259000 T    3793 GCA    -0.6000 ****
11379 HC1    19.760000  -17.708000  -49.007000 H    3793 GCA     0.4000 ****
11380 TC2    24.564000  -26.118000  -67.635000 T    3794 GCA     0.6000 ****
11381 TC1    24.834000  -22.375000  -58.366000 T    3794 GCA    -0.6000 ****
11382 HC1    25.105000  -18.632000  -49.096000 H    3794 GCA     0.4000 ****
11383 TC2    32.036000  -25.301000  -67.758000 T    3795 GCA     0.6000 ****
11384 TC1    31.266000  -21.672000  -58.472000 T    3795 GCA    -0.6000 ****
11385 HC1    30.495000  -18.043000  -49.185000 H    3795 GCA     0.4000 ****
11386 TC2    38.980000  -22.427000  -67.882000 T    3796 GCA     0.6000 ****
11387 TC1    37.242000  -19.198000  -58.578000 T    3796 GCA    -0.6000 ****
11388 HC1    35.505000  -15.969000  -49.275000 H    3796 GCA     0.4000 ****
11389 TC2    44.826000  -17.707000  -68.005000 T    3797 GCA     0.6000 ****
11390 TC1    42.274000  -15.135000  -58.684000 T    3797 GCA    -0.6000 ****
11391 HC1    39.722000  -12.564000  -49.364000 H    3797 GCA     0.4000 ****
11392 TC2    49.076000  -11.512000  -68.129000 T    3798 GCA     0.6000 ****
11393 TC1    45.932000   -9.804000  -58.791000 T    3798 GCA    -0.6000 ****
11394 HC1    42.789000   -8.095000  -49.453000 H    3798 GCA     0.4000 ****
11395 TC2    51.350000   -4.354000  -68.252000 T    3799 GCA     0.6000 ****
11396 TC1    47.889000   -3.643000  -58.897000 T    3799 GCA    -0.6000 ****
11397 HC1    44.429000   -2.931000  -49.542000 H    3799 GCA     0.4000 ****
11398 TC2    51.425000    3.154000  -68.375000 T    3800 GCA     0.6000 ****
11399 TC1    47.954000    2.820000  -59.003000 T    3800 GCA    -0.6000 ****
11400 HC1    44.483000    2.486000  -49.631000 H    3800 GCA     0.4000 ****
11401 TC2    49.268000   10.344000  -68.499000 T    3801 GCA     0.6000 ****
11402 TC1    46.097000    9.009000  -59.109000 T    3801 GCA    -0.6000 ****
11403 HC1    42.927000    7.673000  -49.720000 H    3801 GCA     0.4000 ****
11404 TC2    45.050000   16.551000  -68.622000 T    3802 GCA     0.6000 ****
11405 TC1    42.467000   14.351000  -59.216000 T    3802 GCA    -0.6000 ****
11406 HC1    39.884000   12.151000  -49.809000 H    3802 GCA     0.4000 ****
11407 TC2    39.142000   21.176000  -68.746000 T    3803 GCA     0.6000 ****
11408 TC1    37.382000   18.332000  -59.322000 T    3803 GCA    -0.6000 ****
11409 HC1    35.622000   15.487000  -49.898000 H    3803 GCA     0.4000 ****
11410 TC2    32.097000   23.749000  -68.869000 T    3804 GCA     0.6000 ****
11411 TC1    31.318000   20.546000  -59.428000 T    3804 GCA    -0.6000 ****
11412 HC1    30.539000   17.343000  -49.987000 H    3804 GCA     0.4000 ****
11413 TC2    24.603000   23.985000  -68.993000 T    3805 GCA     0.6000 ****
11414 TC1    24.868000   20.749000  -59.534000 T    3805 GCA    -0.6000 ****
11415 HC1    25.133000   17.513000  -50.076000 H    3805 GCA     0.4000 ****
11416 TC2    17.425000   21.827000  -69.116000 T    3806 GCA     0.6000 ****
11417 TC1    18.690000   18.892000  -59.641000 T    3806 GCA    -0.6000 ****
11418 HC1    19.955000   15.956000  -50.165000 H    3806 GCA     0.4000 ****
11419 TC2    11.330000   17.470000  -69.240000 T    3807 GCA     0.6000 ****
11420 TC1    13.444000   15.141000  -59.747000 T    3807 GCA    -0.6000 ****
11421 HC1    15.557000   12.813000  -50.254000 H    3807 GCA     0.4000 ****
11422 TC2     7.001000   11.358000  -69.363000 T    3808 GCA     0.6000 ****
11423 TC1     9.718000    9.881000  -59.853000 T    3808 GCA    -0.6000 ****
11424 HC1    12.434000    8.404000  -50.343000 H    3808 GCA     0.4000 ****
11425 TC2     4.955000    4.156000  -69.487000 T    3809 GCA     0.6000 ****
11426 TC1     7.957000    3.682000  -59.960000 T    3809 GCA    -0.6000 ****
11427 HC1    10.958000    3.209000  -50.432000 H    3809 GCA     0.4000 ****
11428 TC2     5.468000   -3.309000  -69.610000 T    3810 GCA     0.6000 ****
11429 TC1     8.398000   -2.743000  -60.066000 T    3810 GCA    -0.6000 ****
11430 HC1    11.328000   -2.177000  -50.521000 H    3810 GCA     0.4000 ****
11431 TC2     8.519000  -10.138000  -69.734000 T    3811 GCA     0.6000 ****
11432 TC1    11.024000   -8.621000  -60.172000 T    3811 GCA    -0.6000 ****
11433 HC1    13.529000   -7.104000  -50.611000 H    3811 GCA     0.4000 ****
11434 TC2    13.767000  -15.461000  -69.857000 T    3812 GCA     0.6000 ****
11435 TC1    15.542000  -13.203000  -60.278000 T    3812 GCA    -0.6000 ****
11436 HC1    17.316000  -10.944000  -50.700000 H    3812 GCA     0.4000 ****
11437 TC2    20.567000  -18.557000  -69.980000 T    3813 GCA     0.6000 ****
11438 TC1    21.394000  -15.867000  -60.385000 T    3813 GCA    -0.6000 ****
11439 HC1    22.221000  -13.178000  -50.789000 H    3813 GCA     0.4000 ****
11440 TC2    28.023000  -18.965000  -70.104000 T    3814 GCA     0.6000 ****
11441 TC1    27.811000  -16.219000  -60.491000 T    3814 GCA    -0.6000 ****
11442 HC1    27.600000  -13.472000  -50.878000 H    3814 GCA     0.4000 ****
11443 TC2    35.092000  -16.577000  -70.227000 T    3815 GCA     0.6000 ****
11444 TC1    33.896000  -14.163000  -60.597000 T    3815 GCA    -0.6000 ****
11445 HC1    32.700000  -11.749000  -50.967000 H    3815 GCA     0.4000 ****
11446 TC2    40.723000  -11.690000  -70.351000 T    3816 GCA     0.6000 ****
11447 TC1    38.743000   -9.957000  -60.703000 T    3816 GCA    -0.6000 ****
11448 HC1    36.762000   -8.224000  -51.056000 H    3816 GCA     0.4000 ****
11449 TC2    44.018000   -5.008000  -70.474000 T    3817 GCA     0.6000 ****
11450 TC1    41.578000   -4.205000  -60.810000 T    3817 GCA    -0.6000 ****
11451 HC1    39.139000   -3.403000  -51.145000 H    3817 GCA     0.4000 ****
11452 TC2    44.392000    2.426000  -70.598000 T    3818 GCA     0.6000 ****
11453 TC1    41.901000    2.193000  -60.916000 T    3818 GCA    -0.6000 ****
11454 HC1    39.409000    1.960000  -51.234000 H    3818 GCA     0.4000 ****
11455 TC2    41.717000    9.365000  -70.721000 T    3819 GCA     0.6000 ****
11456 TC1    39.599000    8.166000  -61.022000 T    3819 GCA    -0.6000 ****
11457 HC1    37.480000    6.966000  -51.323000 H    3819 GCA     0.4000 ****
11458 TC2    36.401000   14.553000  -70.845000 T    3820 GCA     0.6000 ****
11459 TC1    35.023000   12.631000  -61.128000 T    3820 GCA    -0.6000 ****
11460 HC1    33.645000   10.709000  -51.412000 H    3820 GCA     0.4000 ****
11461 TC2    29.386000   16.966000  -70.968000 T    3821 GCA     0.6000 ****
11462 TC1    28.984000   14.708000  -61.235000 T    3821 GCA    -0.6000 ****
11463 HC1    28.583000   12.449000  -51.501000 H    3821 GCA     0.4000 ****
11464 TC2    22.034000   16.046000  -71.092000 T    3822 GCA     0.6000 ****
11465 TC1    22.657000   13.916000  -61.341000 T    3822 GCA    -0.6000 ****
11466 HC1    23.280000   11.786000  -51.590000 H    3822 GCA     0.4000 ****
11467 TC2    15.908000   11.901000  -71.215000 T    3823 GCA     0.6000 ****
11468 TC1    17.384000   10.348000  -61.447000 T    3823 GCA    -0.6000 ****
11469 HC1    18.860000    8.796000  -51.679000 H    3823 GCA     0.4000 ****
11470 TC2    12.441000    5.382000  -71.339000 T    3824 GCA     0.6000 ****
11471 TC1    14.400000    4.738000  -61.554000 T    3824 GCA    -0.6000 ****
11472 HC1    16.359000    4.093000  -51.768000 H    3824 GCA     0.4000 ****
11473 TC2    12.564000   -1.984000  -71.462000 T    3825 GCA     0.6000 ****
11474 TC1    14.506000   -1.603000  -61.660000 T    3825 GCA    -0.6000 ****
11475 HC1    16.448000   -1.222000  -51.858000 H    3825 GCA     0.4000 ****
11476 TC2    16.361000   -8.277000  -71.585000 T    3826 GCA     0.6000 ****
11477 TC1    17.774000   -7.019000  -61.766000 T    3826 GCA    -0.6000 ****
11478 HC1    19.187000   -5.761000  -51.947000 H    3826 GCA     0.4000 ****
11479 TC2    22.866000  -11.648000  -71.709000 T    3827 GCA     0.6000 ****
11480 TC1    23.373000   -9.920000  -61.872000 T    3827 GCA    -0.6000 ****
11481 HC1    23.880000   -8.193000  -52.036000 H    3827 GCA     0.4000 ****
11482 TC2    30.131000  -10.927000  -71.832000 T    3828 GCA     0.6000 ****
11483 TC1    29.626000   -9.300000  -61.979000 T    3828 GCA    -0.6000 ****
11484 HC1    29.121000   -7.673000  -52.125000 H    3828 GCA     0.4000 ****
11485 TC2    35.654000   -6.203000  -71.956000 T    3829 GCA     0.6000 ****
11486 TC1    34.380000   -5.234000  -62.085000 T    3829 GCA    -0.6000 ****
11487 HC1    33.105000   -4.265000  -52.214000 H    3829 GCA     0.4000 ****
11488 TC2    37.209000    0.853000  -72.079000 T    3830 GCA     0.6000 ****
11489 TC1    35.718000    0.839000  -62.191000 T    3830 GCA    -0.6000 ****
11490 HC1    34.227000    0.825000  -52.303000 H    3830 GCA     0.4000 ****
11491 TC2    33.929000    7.229000  -72.203000 T    3831 GCA     0.6000 ****
11492 TC1    32.895000    6.327000  -62.297000 T    3831 GCA    -0.6000 ****
11493 HC1    31.861000    5.425000  -52.392000 H    3831 GCA     0.4000 ****
11494 TC2    27.255000    9.637000  -72.326000 T    3832 GCA     0.6000 ****
11495 TC1    27.150000    8.399000  -62.404000 T    3832 GCA    -0.6000 ****
11496 HC1    27.046000    7.162000  -52.481000 H    3832 GCA     0.4000 ****
11497 TC2    21.053000    6.422000  -72.450000 T    3833 GCA     0.6000 ****
11498 TC1    21.812000    5.633000  -62.510000 T    3833 GCA    -0.6000 ****
11499 HC1    22.572000    4.843000  -52.570000 H    3833 GCA     0.4000 ****
11500 TC2    19.939000   -0.298000  -72.573000 T    3834 GCA     0.6000 ****
11501 TC1    20.853000   -0.151000  -62.616000 T    3834 GCA    -0.6000 ****
11502 HC1    21.768000   -0.005000  -52.659000 H    3834 GCA     0.4000 ****
11503 TC2    25.119000   -4.209000  -72.697000 T    3835 GCA     0.6000 ****
11504 TC1    25.312000   -3.518000  -62.722000 T    3835 GCA    -0.6000 ****
11505 HC1    25.505000   -2.827000  -52.748000 H    3835 GCA     0.4000 ****
11506 TC2    29.278000   -0.329000  -72.820000 T    3836 GCA     0.6000 ****
11507 TC1    28.891000   -0.179000  -62.829000 T    3836 GCA    -0.6000 ****
11508 HC1    28.505000   -0.028000  -52.837000 H    3836 GCA     0.4000 ****
11509 OIL    75.126000   69.419000  -27.364000 O    3837 GOL     0.0000 ****
11510 OIL   -72.383000  -39.483000   19.933000 O    3838 GOL     0.0000 ****
11511 OIL    12.008000   34.557000   92.684000 O    3839 GOL     0.0000 ****
11512 OIL   -50.549000  -34.546000   60.254000 O    3840 GOL     0.0000 ****
11513 OIL   -61.258000  -29.545000  -10.855000 O    3841 GOL     0.0000 ****
11514 OIL   -15.246000  -84.846000  -15.818000 O    3842 GOL     0.0000 ****
11515 OIL   -12.036000  -20.481000   96.115000 O    3843 GOL     0.0000 ****
11516 OIL    73.433000   40.747000   58.895000 O    3844 GOL     0.0000 ****
11517 OIL   -15.606000   88.218000   55.051000 O    3845 GOL     0.0000 ****
11518 OIL    80.241000  -54.374000    2.966000 O    3846 GOL     0.0000 ****
11519 OIL   -76.027000  -63.374000    7.176000 O    3847 GOL     0.0000 ****
11520 OIL   -37.265000    5.532000   76.912000 O    3848 GOL     0.0000 ****
11521 OIL     2.659000  -65.782000  -76.311000 O    3849 GOL     0.0000 ****
11522 OIL   -76.647000  -13.016000    1.134000 O    3850 GOL     0.0000 ****
11523 OIL    87.990000  -29.455000  -53.526000 O    3851 GOL     0.0000 ****
11524 OIL   -41.400000   80.982000   56.661000 O    3852 GOL     0.0000 ****
11525 OIL    68.491000   68.355000   -4.880000 O    3853 GOL     0.0000 ****
11526 OIL   -24.819000  -15.536000   82.682000 O    3854 GOL     0.0000 ****
11527 OIL    10.699000  -50.694000   69.490000 O    3855 GOL     0.0000 ****
11528 OIL   -75.584000   15.892000   46.790000 O    3856 GOL     0.0000 ****
11529 OIL   -90.866000    6.487000  -36.551000 O    3857 GOL     0.0000 ****
11530 OIL     8.377000  -69.065000   19.680000 O    3858 GOL     0.0000 ****
11531 OIL    80.564000   38.457000   37.483000 O    3859 GOL     0.0000 ****
11532 OIL   -45.121000   58.920000   52.229000 O    3860 GOL     0.0000 ****
11533 OIL   -58.061000   19.163000   14.936000 O    3861 GOL     0.0000 ****
11534 OIL     6.526000  -59.408000   58.276000 O    3862 GOL     0.0000 ****
11535 OIL    20.582000  -55.420000   83.470000 O    3863 GOL     0.0000 ****
11536 OIL    37.183000    4.824000  -95.152000 O    3864 GOL     0.0000 ****
11537 OIL   -26.671000  -19.818000  -83.895000 O    3865 GOL     0.0000 ****
11538 OIL   -43.831000   79.729000  -43.592000 O    3866 GOL     0.0000 ****
11539 OIL    26.207000  -42.951000   77.706000 O    3867 GOL     0.0000 ****
11540 OIL    33.409000  -31.836000  -77.535000 O    3868 GOL     0.0000 ****
11541 OIL    69.329000   67.155000    5.907000 O    3869 GOL     0.0000 ****
11542 OIL    -8.372000 -103.890000   -1.555000 O    3870 GOL     0.0000 ****
11543 OIL     9.717000    2.566000  -89.752000 O    3871 GOL     0.0000 ****
11544 OIL   -22.759000   97.037000  -13.994000 O    3872 GOL     0.0000 ****
11545 OIL   -34.204000  -85.336000  -18.253000 O    3873 GOL     0.0000 ****
11546 OIL    13.554000   99.851000    9.607000 O    3874 GOL     0.0000 ****
11547 OIL   -55.096000  -65.399000  -24.419000 O    3875 GOL     0.0000 ****
11548 OIL   -16.213000  -25.535000  -72.385000 O    3876 GOL     0.0000 ****
11549 OIL    33.252000  -96.085000   32.607000 O    3877 GOL     0.0000 ****
11550 OIL   -88.883000  -42.211000  -13.421000 O    3878 GOL     0.0000 ****
11551 OIL    47.577000  -91.531000  -29.482000 O    3879 GOL     0.0000 ****
11552 OIL   -29.837000    0.358000   68.723000 O    3880 GOL     0.0000 ****
11553 OIL    58.288000   65.715000   32.097000 O    3881 GOL     0.0000 ****
11554 OIL     2.108000   89.803000   38.589000 O    3882 GOL     0.0000 ****
11555 OIL   -22.054000   75.852000   -6.065000 O    3883 GOL     0.0000 ****
11556 OIL    65.322000   54.038000   45.960000 O    3884 GOL     0.0000 ****
11557 OIL    73.613000  -14.400000  -76.829000 O    3885 GOL     0.0000 ****
11558 OIL   -69.478000   12.297000  -79.807000 O    3886 GOL     0.0000 ****
11559 OIL    68.220000  -21.245000   78.912000 O    3887 GOL     0.0000 ****
11560 OIL   -49.530000   -5.061000   43.319000 O    3888 GOL     0.0000 ****
11561 OIL   -55.990000   45.257000   22.711000 O    3889 GOL     0.0000 ****
11562 OIL    13.448000   35.749000  -73.278000 O    3890 GOL     0.0000 ****
11563 OIL   -75.901000   21.780000  -59.738000 O    3891 GOL     0.0000 ****
11564 OIL     4.176000  -32.231000  -97.093000 O    3892 GOL     0.0000 ****
11565 OIL   -35.222000  -71.684000  -67.057000 O    3893 GOL     0.0000 ****
11566 OIL   -53.743000    2.292000   26.769000 O    3894 GOL     0.0000 ****
11567 OIL   -34.675000  -54.403000    6.274000 O    3895 GOL     0.0000 ****
11568 OIL   -43.915000   59.191000  -57.233000 O    3896 GOL     0.0000 ****
11569 OIL    -9.238000    2.209000   93.667000 O    3897 GOL     0.0000 ****
11570 OIL    32.801000   18.306000  -84.803000 O    3898 GOL     0.0000 ****
11571 OIL   -44.605000   82.825000  -32.088000 O    3899 GOL     0.0000 ****
11572 OIL   -10.821000   81.139000   20.344000 O    3900 GOL     0.0000 ****
11573 OIL   -29.438000  -35.739000   89.137000 O    3901 GOL     0.0000 ****
11574 OIL   -26.737000  -23.101000   66.663000 O    3902 GOL     0.0000 ****
11575 OIL   -50.002000  -29.856000  -26.219000 O    3903 GOL     0.0000 ****
11576 OIL   -52.407000   -2.501000  -91.003000 O    3904 GOL     0.0000 ****
11577 OIL     6.635000   18.628000 -101.215000 O    3905 GOL     0.0000 ****
11578 OIL    53.766000  -60.318000   65.147000 O    3906 GOL     0.0000 ****
11579 OIL    -0.188000   47.155000   69.415000 O    3907 GOL     0.0000 ****
11580 OIL   -26.923000  -78.487000   54.347000 O    3908 GOL     0.0000 ****
11581 OIL    58.034000   48.952000  -64.945000 O    3909 GOL     0.0000 ****
11582 OIL    36.432000  -88.147000   -4.720000 O    3910 GOL     0.0000 ****
11583 OIL   -68.021000   64.327000   -1.411000 O    3911 GOL     0.0000 ****
11584 OIL   -65.382000  -11.339000   64.917000 O    3912 GOL     0.0000 ****
11585 OIL    -6.976000   72.015000   73.071000 O    3913 GOL     0.0000 ****
11586 OIL   -94.870000   -2.424000    1.597000 O    3914 GOL     0.0000 ****
11587 OIL   -46.236000  -59.725000  -16.795000 O    3915 GOL     0.0000 ****
11588 OIL   -13.645000 -104.440000   -6.492000 O    3916 GOL     0.0000 ****
11589 OIL     3.097000   87.986000  -52.365000 O    3917 GOL     0.0000 ****
11590 OIL   -34.779000  -53.918000  -10.758000 O    3918 GOL     0.0000 ****
11591 OIL   -60.370000  -53.295000  -11.806000 O    3919 GOL     0.0000 ****
11592 OIL   -96.927000   14.904000   25.696000 O    3920 GOL     0.0000 ****
11593 OIL   -31.264000  -19.708000   51.365000 O    3921 GOL     0.0000 ****
11594 OIL   -41.374000  -78.409000   36.677000 O    3922 GOL     0.0000 ****
11595 OIL    -6.952000   41.789000   92.232000 O    3923 GOL     0.0000 ****
11596 OIL   -67.735000  -16.620000  -46.572000 O    3924 GOL     0.0000 ****
11597 OIL   -60.003000  -31.923000  -17.016000 O    3925 GOL     0.0000 ****
11598 OIL   -58.204000   29.035000  -79.905000 O    3926 GOL     0.0000 ****
11599 OIL    34.957000  -20.673000   96.754000 O    3927 GOL     0.0000 ****
11600 OIL   -53.240000   60.904000   38.167000 O    3928 GOL     0.0000 ****
11601 OIL    51.366000   57.787000  -43.681000 O    3929 GOL     0.0000 ****
11602 OIL    60.589000  -19.054000   83.525000 O    3930 GOL     0.0000 ****
11603 OIL    57.936000  -69.554000  -30.920000 O    3931 GOL     0.0000 ****
11604 OIL   -63.534000  -35.089000  -44.950000 O    3932 GOL     0.0000 ****
11605 OIL    15.033000  -26.060000  -74.716000 O    3933 GOL     0.0000 ****
11606 OIL     9.514000   29.214000  -68.830000 O    3934 GOL     0.0000 ****
11607 OIL   -70.135000  -41.248000  -39.854000 O    3935 GOL     0.0000 ****
11608 OIL   -33.626000   66.758000  -22.829000 O    3936 GOL     0.0000 ****
11609 OIL   -72.488000   -6.781000  -51.189000 O    3937 GOL     0.0000 ****
11610 OIL   -60.279000   72.204000  -23.974000 O    3938 GOL     0.0000 ****
11611 OIL    46.836000   66.365000  -32.824000 O    3939 GOL     0.0000 ****
11612 OIL   -57.277000  -55.555000  -35.560000 O    3940 GOL     0.0000 ****
11613 OIL    44.638000  -63.309000  -52.303000 O    3941 GOL     0.0000 ****
11614 OIL   -15.275000   71.449000   48.100000 O    3942 GOL     0.0000 ****
11615 OIL    15.397000   53.786000  -82.883000 O    3943 GOL     0.0000 ****
11616 OIL   -35.696000   47.226000   -9.428000 O    3944 GOL     0.0000 ****
11617 OIL    -7.265000   -9.977000  -96.703000 O    3945 GOL     0.0000 ****
11618 OIL   -88.037000  -57.716000   -5.758000 O    3946 GOL     0.0000 ****
11619 OIL    43.349000   -3.888000  -81.538000 O    3947 GOL     0.0000 ****
11620 OIL    14.176000   78.987000  -58.398000 O    3948 GOL     0.0000 ****
11621 OIL   -16.738000   80.936000    2.143000 O    3949 GOL     0.0000 ****
11622 OIL    92.406000    3.355000  -46.820000 O    3950 GOL     0.0000 ****
11623 OIL     7.575000   98.363000   30.761000 O    3951 GOL     0.0000 ****
11624 OIL   -40.050000  -27.195000   59.948000 O    3952 GOL     0.0000 ****
11625 OIL    52.390000   54.466000  -69.351000 O    3953 GOL     0.0000 ****
11626 OIL   -32.617000   15.085000   91.844000 O    3954 GOL     0.0000 ****
11627 OIL   -31.804000   33.093000   81.513000 O    3955 GOL     0.0000 ****
11628 OIL   -41.987000  -35.097000    3.673000 O    3956 GOL     0.0000 ****
11629 OIL   -85.729000  -28.228000   -1.827000 O    3957 GOL     0.0000 ****
11630 OIL   -41.311000   37.991000   -6.845000 O    3958 GOL     0.0000 ****
11631 OIL   -40.922000   24.545000   16.283000 O    3959 GOL     0.0000 ****
11632 OIL   -60.448000   27.735000   31.662000 O    3960 GOL     0.0000 ****
11633 OIL   -12.408000   -5.595000   63.406000 O    3961 GOL     0.0000 ****
11634 OIL    56.399000   53.542000  -43.886000 O    3962 GOL     0.0000 ****
11635 OIL    39.713000  -12.426000   87.303000 O    3963 GOL     0.0000 ****
11636 OIL    28.357000  -45.142000  -73.686000 O    3964 GOL     0.0000 ****
11637 OIL   -48.669000   41.589000  -81.869000 O    3965 GOL     0.0000 ****
11638 OIL   -62.769000   21.794000   80.697000 O    3966 GOL     0.0000 ****
11639 OIL   -51.391000  -13.914000   15.579000 O    3967 GOL     0.0000 ****
11640 OIL     4.181000   12.717000 -104.834000 O    3968 GOL     0.0000 ****
11641 OIL   -63.338000   35.948000   69.317000 O    3969 GOL     0.0000 ****
11642 OIL    18.599000  -97.252000   37.191000 O    3970 GOL     0.0000 ****
11643 OIL   -60.401000  -25.387000   53.529000 O    3971 GOL     0.0000 ****
11644 OIL    91.886000  -23.354000   27.532000 O    3972 GOL     0.0000 ****
11645 OIL   -21.762000  -23.999000  -80.341000 O    3973 GOL     0.0000 ****
11646 OIL   -16.605000  -79.622000   17.459000 O    3974 GOL     0.0000 ****
11647 OIL   -18.367000  -50.696000   57.621000 O    3975 GOL     0.0000 ****
11648 OIL   -67.333000  -76.609000  -11.325000 O    3976 GOL     0.0000 ****
11649 OIL   -25.451000   68.581000  -15.245000 O    3977 GOL     0.0000 ****
11650 OIL    53.503000   58.281000  -71.505000 O    3978 GOL     0.0000 ****
11651 OIL   -21.425000   76.273000  -23.090000 O    3979 GOL     0.0000 ****
11652 OIL   106.503000    7.488000    4.516000 O    3980 GOL     0.0000 ****
11653 OIL   -45.831000   81.482000    1.330000 O    3981 GOL     0.0000 ****
11654 OIL   -74.702000   -3.707000  -16.558000 O    3982 GOL     0.0000 ****
11655 OIL   -29.463000   -4.738000   68.712000 O    3983 GOL     0.0000 ****
11656 OIL   -51.497000   67.816000   20.268000 O    3984 GOL     0.0000 ****
11657 OIL   -28.902000  -50.364000  -30.026000 O    3985 GOL     0.0000 ****
11658 OIL   -43.868000  -47.962000  -55.447000 O    3986 GOL     0.0000 ****
11659 OIL    56.069000   38.102000   65.000000 O    3987 GOL     0.0000 ****
11660 OIL    83.816000  -24.488000  -54.617000 O    3988 GOL     0.0000 ****
11661 OIL   -29.485000   29.779000   62.182000 O    3989 GOL     0.0000 ****
11662 OIL   -83.377000   38.864000   11.099000 O    3990 GOL     0.0000 ****
11663 OIL    30.517000  -56.773000   70.620000 O    3991 GOL     0.0000 ****
11664 OIL   -13.722000  -34.483000   59.355000 O    3992 GOL     0.0000 ****
11665 OIL    87.463000   52.302000   24.594000 O    3993 GOL     0.0000 ****
11666 OIL   -71.610000   17.660000  -68.956000 O    3994 GOL     0.0000 ****
11667 OIL   -39.133000  -14.538000   96.624000 O    3995 GOL     0.0000 ****
11668 OIL   -74.383000   21.316000   -0.987000 O    3996 GOL     0.0000 ****
11669 OIL   -25.527000   64.788000   42.699000 O    3997 GOL     0.0000 ****
11670 OIL     9.462000  -46.822000   95.158000 O    3998 GOL     0.0000 ****
11671 OIL   102.400000    6.248000   12.531000 O    3999 GOL     0.0000 ****
11672 OIL   -38.456000  -35.266000   78.564000 O    4000 GOL     0.0000 ****
11673 OIL   -75.416000   37.005000   20.470000 O    4001 GOL     0.0000 ****
11674 OIL    19.834000  -98.718000   24.566000 O    4002 GOL     0.0000 ****
11675 OIL   -99.731000  -38.032000   -5.317000 O    4003 GOL     0.0000 ****
11676 OIL    16.572000   32.240000  -94.625000 O    4004 GOL     0.0000 ****
11677 OIL   -46.153000  -16.593000  -10.488000 O    4005 GOL     0.0000 ****
11678 OIL   -49.086000   33.365000  -13.342000 O    4006 GOL     0.0000 ****
11679 OIL    31.328000   26.799000  -73.875000 O    4007 GOL     0.0000 ****
11680 OIL   -53.561000  -22.745000  -77.799000 O    4008 GOL     0.0000 ****
11681 OIL   -60.447000   32.379000   10.287000 O    4009 GOL     0.0000 ****
11682 OIL   -45.645000   48.677000   51.534000 O    4010 GOL     0.0000 ****
11683 OIL    -0.310000   41.425000  -61.160000 O    4011 GOL     0.0000 ****
11684 OIL   -21.727000   31.517000   50.124000 O    4012 GOL     0.0000 ****
11685 OIL   -57.929000   44.558000   66.232000 O    4013 GOL     0.0000 ****
11686 OIL   -40.145000  -88.170000  -30.839000 O    4014 GOL     0.0000 ****
11687 OIL    38.453000  -98.744000    4.839000 O    4015 GOL     0.0000 ****
11688 OIL   -75.570000  -19.209000   19.013000 O    4016 GOL     0.0000 ****
11689 OIL    83.634000  -12.477000   49.616000 O    4017 GOL     0.0000 ****
11690 OIL   -35.150000  -25.702000  -95.215000 O    4018 GOL     0.0000 ****
11691 OIL   -78.887000   49.675000    4.176000 O    4019 GOL     0.0000 ****
11692 OIL   -54.039000   52.474000  -38.433000 O    4020 GOL     0.0000 ****
11693 OIL   -42.930000  -33.422000  -23.914000 O    4021 GOL     0.0000 ****
11694 OIL    24.446000  -23.837000  -94.426000 O    4022 GOL     0.0000 ****
11695 OIL    82.570000  -31.852000  -44.360000 O    4023 GOL     0.0000 ****
11696 OIL   -17.320000  -78.770000  -45.245000 O    4024 GOL     0.0000 ****
11697 OIL   -19.529000  -59.834000  -73.104000 O    4025 GOL     0.0000 ****
11698 OIL   -28.208000  -34.986000   42.482000 O    4026 GOL     0.0000 ****
11699 OIL    23.732000  -30.819000   71.811000 O    4027 GOL     0.0000 ****
11700 OIL   -67.633000   26.778000  -60.495000 O    4028 GOL     0.0000 ****
11701 OIL    15.788000   69.875000  -55.165000 O    4029 GOL     0.0000 ****
11702 OIL     6.833000  -50.269000  -53.578000 O    4030 GOL     0.0000 ****
11703 OIL    64.107000   31.405000   71.145000 O    4031 GOL     0.0000 ****
11704 OIL   -33.039000   91.907000   27.224000 O    4032 GOL     0.0000 ****
11705 OIL    67.899000  -24.797000  -77.713000 O    4033 GOL     0.0000 ****
11706 OIL    60.249000   15.660000   62.617000 O    4034 GOL     0.0000 ****
11707 OIL    75.713000  -15.881000  -70.645000 O    4035 GOL     0.0000 ****
11708 OIL    34.172000  -82.952000  -46.770000 O    4036 GOL     0.0000 ****
11709 OIL    34.040000   54.138000  -79.575000 O    4037 GOL     0.0000 ****
11710 OIL    86.733000   -8.819000   52.995000 O    4038 GOL     0.0000 ****
11711 OIL   -43.403000  -50.812000  -28.459000 O    4039 GOL     0.0000 ****
11712 OIL    71.645000   -7.557000  -76.031000 O    4040 GOL     0.0000 ****
11713 OIL    25.157000   95.633000  -20.918000 O    4041 GOL     0.0000 ****
11714 OIL    87.828000  -41.993000   -4.469000 O    4042 GOL     0.0000 ****
11715 OIL   -71.579000   65.026000  -14.132000 O    4043 GOL     0.0000 ****
11716 OIL   -16.504000   68.756000  -44.299000 O    4044 GOL     0.0000 ****
11717 OIL    -6.391000   36.122000   75.288000 O    4045 GOL     0.0000 ****
11718 OIL   -86.221000   -2.932000  -51.971000 O    4046 GOL     0.0000 ****
11719 OIL    -8.589000  -24.012000  -96.458000 O    4047 GOL     0.0000 ****
11720 OIL  -103.212000  -19.752000   15.033000 O    4048 GOL     0.0000 ****
11721 OIL   -31.446000  -40.597000  -17.882000 O    4049 GOL     0.0000 ****
11722 OIL   -23.672000  -66.404000    9.364000 O    4050 GOL     0.0000 ****
11723 OIL   -61.832000    1.864000   62.505000 O    4051 GOL     0.0000 ****
11724 OIL    20.539000   66.139000  -67.662000 O    4052 GOL     0.0000 ****
11725 OIL   -17.974000   70.464000  -74.711000 O    4053 GOL     0.0000 ****
11726 OIL   -76.388000   -1.636000  -41.043000 O    4054 GOL     0.0000 ****
11727 OIL    -3.365000   13.634000   91.798000 O    4055 GOL     0.0000 ****
11728 OIL    16.558000  -78.687000   -7.213000 O    4056 GOL     0.0000 ****
11729 OIL   -69.552000   10.741000  -68.679000 O    4057 GOL     0.0000 ****
11730 OIL   -47.050000   80.574000   43.687000 O    4058 GOL     0.0000 ****
11731 OIL     5.797000   68.379000  -67.305000 O    4059 GOL     0.0000 ****
11732 OIL    -0.612000   68.245000  -10.301000 O    4060 GOL     0.0000 ****
11733 OIL    -1.896000   68.685000  -80.708000 O    4061 GOL     0.0000 ****
11734 OIL     7.260000    9.800000  100.392000 O    4062 GOL     0.0000 ****
11735 OIL    28.153000  -62.856000   78.509000 O    4063 GOL     0.0000 ****
11736 OIL     7.522000   12.249000   75.688000 O    4064 GOL     0.0000 ****
11737 OIL   -21.629000   71.158000   52.384000 O    4065 GOL     0.0000 ****
11738 OIL  -101.374000   -0.758000   15.475000 O    4066 GOL     0.0000 ****
11739 OIL   -24.577000  -33.917000   55.144000 O    4067 GOL     0.0000 ****
11740 OIL    32.839000  -68.552000  -30.247000 O    4068 GOL     0.0000 ****
11741 OIL   -40.135000   33.096000   75.795000 O    4069 GOL     0.0000 ****
11742 OIL   -53.247000   39.054000  -66.555000 O    4070 GOL     0.0000 ****
11743 OIL   -23.663000   52.460000   88.934000 O    4071 GOL     0.0000 ****
11744 OIL   -25.588000   45.059000  -28.291000 O    4072 GOL     0.0000 ****
11745 OIL    -0.021000  -44.928000  -90.485000 O    4073 GOL     0.0000 ****
11746 OIL   -23.064000  -54.068000   36.277000 O    4074 GOL     0.0000 ****
11747 OIL    54.984000  -40.972000  -68.897000 O    4075 GOL     0.0000 ****
11748 OIL    60.534000  -85.363000  -21.227000 O    4076 GOL     0.0000 ****
11749 OIL   -82.407000  -35.537000  -15.673000 O    4077 GOL     0.0000 ****
11750 OIL   -34.078000   94.149000    4.900000 O    4078 GOL     0.0000 ****
11751 OIL   -26.753000  -11.167000  -97.111000 O    4079 GOL     0.0000 ****
11752 OIL    10.497000  -37.879000   91.582000 O    4080 GOL     0.0000 ****
11753 OIL   -34.129000   40.392000   30.267000 O    4081 GOL     0.0000 ****
11754 OIL    35.572000  -49.028000  -86.614000 O    4082 GOL     0.0000 ****
11755 OIL   -87.860000   -7.861000  -60.226000 O    4083 GOL     0.0000 ****
11756 OIL   -41.962000   29.754000  -86.488000 O    4084 GOL     0.0000 ****
11757 OIL   -76.899000   35.046000  -65.927000 O    4085 GOL     0.0000 ****
11758 OIL   -57.560000   78.932000   28.565000 O    4086 GOL     0.0000 ****
11759 OIL   -77.102000  -10.512000   59.560000 O    4087 GOL     0.0000 ****
11760 OIL   -43.751000   30.816000  -84.947000 O    4088 GOL     0.0000 ****
11761 OIL    36.059000   88.144000   18.345000 O    4089 GOL     0.0000 ****
11762 OIL   -31.591000  -84.307000  -27.579000 O    4090 GOL     0.0000 ****
11763 OIL   -27.691000   96.082000   29.443000 O    4091 GOL     0.0000 ****
11764 OIL    26.275000  -27.725000   70.114000 O    4092 GOL     0.0000 ****
11765 OIL   -80.091000  -53.103000    4.238000 O    4093 GOL     0.0000 ****
11766 OIL   -40.631000   81.942000   18.323000 O    4094 GOL     0.0000 ****
11767 OIL     5.753000   67.701000  -66.309000 O    4095 GOL     0.0000 ****
11768 OIL   -43.794000  -63.905000   30.219000 O    4096 GOL     0.0000 ****
11769 OIL    90.512000   -4.080000  -40.180000 O    4097 GOL     0.0000 ****
11770 OIL    37.336000   61.548000   43.321000 O    4098 GOL     0.0000 ****
11771 OIL    47.332000   -5.485000   71.645000 O    4099 GOL     0.0000 ****
11772 OIL   -38.137000   33.215000  -35.656000 O    4100 GOL     0.0000 ****
11773 OIL   -73.319000  -36.584000  -25.145000 O    4101 GOL     0.0000 ****
11774 OIL    69.739000   50.895000   35.264000 O    4102 GOL     0.0000 ****
11775 OIL   -26.608000  -81.741000  -61.306000 O    4103 GOL     0.0000 ****
11776 OIL    26.798000  101.204000   -6.675000 O    4104 GOL     0.0000 ****
11777 OIL   -30.840000    5.483000  -88.346000 O    4105 GOL     0.0000 ****
11778 OIL   -43.325000   68.680000  -63.623000 O    4106 GOL     0.0000 ****
11779 OIL   -61.161000   29.006000   21.626000 O    4107 GOL     0.0000 ****
11780 OIL   -59.376000   -7.606000   39.292000 O    4108 GOL     0.0000 ****
11781 OIL    36.378000   24.159000  -87.763000 O    4109 GOL     0.0000 ****
11782 OIL   -27.217000  -18.370000  -76.024000 O    4110 GOL     0.0000 ****
11783 OIL   -65.390000   67.008000  -29.691000 O    4111 GOL     0.0000 ****
11784 OIL   -95.500000  -11.789000   -5.368000 O    4112 GOL     0.0000 ****
11785 OIL     7.293000   60.163000   62.807000 O    4113 GOL     0.0000 ****
11786 OIL    44.808000   85.228000   18.381000 O    4114 GOL     0.0000 ****
11787 OIL   -16.385000  -17.534000  -64.076000 O    4115 GOL     0.0000 ****
11788 OIL   -67.835000    7.155000  -28.574000 O    4116 GOL     0.0000 ****
11789 OIL   -12.031000  -93.169000   10.711000 O    4117 GOL     0.0000 ****
11790 OIL     9.702000   -6.920000   91.560000 O    4118 GOL     0.0000 ****
11791 OIL    64.094000   62.321000   47.684000 O    4119 GOL     0.0000 ****
11792 OIL     9.911000    5.004000   77.950000 O    4120 GOL     0.0000 ****
11793 OIL   -31.146000  -27.898000  -66.366000 O    4121 GOL     0.0000 ****
11794 OIL   -27.028000  -53.321000  -85.920000 O    4122 GOL     0.0000 ****
11795 OIL   -91.844000    7.699000  -53.661000 O    4123 GOL     0.0000 ****
11796 OIL    89.966000    3.916000  -50.978000 O    4124 GOL     0.0000 ****
11797 OIL    -2.906000   96.518000  -12.865000 O    4125 GOL     0.0000 ****
11798 OIL   -47.467000  -52.745000   27.804000 O    4126 GOL     0.0000 ****
11799 OIL    17.156000  103.504000  -11.211000 O    4127 GOL     0.0000 ****
11800 OIL    19.971000   90.371000   20.808000 O    4128 GOL     0.0000 ****
11801 OIL   -47.303000  -47.616000   47.171000 O    4129 GOL     0.0000 ****
11802 OIL   -57.546000  -25.658000   24.955000 O    4130 GOL     0.0000 ****
11803 OIL   -52.080000   -3.852000  -49.747000 O    4131 GOL     0.0000 ****
11804 OIL    50.753000   73.385000   -2.949000 O    4132 GOL     0.0000 ****
11805 OIL   -42.853000   22.906000  -20.406000 O    4133 GOL     0.0000 ****
11806 OIL   -25.135000  -54.738000   59.211000 O    4134 GOL     0.0000 ****
11807 OIL   -69.409000   74.028000    2.833000 O    4135 GOL     0.0000 ****
11808 OIL     5.375000   52.843000   62.509000 O    4136 GOL     0.0000 ****
11809 OIL    35.312000   60.959000   76.063000 O    4137 GOL     0.0000 ****
11810 OIL     3.547000  -46.461000  -72.275000 O    4138 GOL     0.0000 ****
11811 OIL   -76.164000  -63.204000  -38.810000 O    4139 GOL     0.0000 ****
11812 OIL   -51.267000  -75.164000  -27.412000 O    4140 GOL     0.0000 ****
11813 OIL    26.344000   86.677000   32.296000 O    4141 GOL     0.0000 ****
11814 OIL   -42.887000  -73.494000   38.344000 O    4142 GOL     0.0000 ****
11815 OIL   -57.470000   59.265000   67.992000 O    4143 GOL     0.0000 ****
11816 OIL   -37.537000   46.024000  -80.059000 O    4144 GOL     0.0000 ****
11817 OIL   -17.247000   22.129000  -68.884000 O    4145 GOL     0.0000 ****
11818 OIL     8.189000  -94.187000   37.774000 O    4146 GOL     0.0000 ****
11819 OIL     9.192000   48.547000  -86.459000 O    4147 GOL     0.0000 ****
11820 OIL    69.792000   70.446000   27.535000 O    4148 GOL     0.0000 ****
11821 OIL   -28.719000    5.290000   51.411000 O    4149 GOL     0.0000 ****
11822 OIL   -69.723000  -47.638000   -7.997000 O    4150 GOL     0.0000 ****
11823 OIL    11.523000   91.079000   53.911000 O    4151 GOL     0.0000 ****
11824 OIL   -60.344000   46.230000  -58.425000 O    4152 GOL     0.0000 ****
11825 OIL    23.071000   40.080000   70.502000 O    4153 GOL     0.0000 ****
11826 OIL   -78.418000  -42.871000   59.284000 O    4154 GOL     0.0000 ****
11827 OIL   -74.183000   70.054000   12.075000 O    4155 GOL     0.0000 ****
11828 OIL   -37.359000   46.256000  -11.695000 O    4156 GOL     0.0000 ****
11829 OIL    -2.948000   50.541000  -63.960000 O    4157 GOL     0.0000 ****
11830 OIL    48.873000   49.428000  -52.787000 O    4158 GOL     0.0000 ****
11831 OIL   -10.556000  -53.992000   92.068000 O    4159 GOL     0.0000 ****
11832 OIL    11.193000  -82.564000   31.504000 O    4160 GOL     0.0000 ****
11833 OIL   -37.717000  -36.267000   13.490000 O    4161 GOL     0.0000 ****
11834 OIL   -78.922000  -52.967000    3.913000 O    4162 GOL     0.0000 ****
11835 OIL  -100.841000   -1.958000  -31.756000 O    4163 GOL     0.0000 ****
11836 OIL    94.452000    6.129000  -34.276000 O    4164 GOL     0.0000 ****
11837 OIL    49.263000  -43.216000   63.101000 O    4165 GOL     0.0000 ****
11838 OIL    43.645000   54.839000   74.717000 O    4166 GOL     0.0000 ****
11839 OIL   -39.371000   71.311000   51.540000 O    4167 GOL     0.0000 ****
11840 OIL   -26.991000  -69.603000   23.256000 O    4168 GOL     0.0000 ****
11841 OIL   -36.368000   56.310000   69.063000 O    4169 GOL     0.0000 ****
11842 OIL   -40.215000   68.000000  -54.928000 O    4170 GOL     0.0000 ****
11843 OIL    -8.170000   47.448000   70.997000 O    4171 GOL     0.0000 ****
11844 OIL    59.304000  -10.840000  -77.375000 O    4172 GOL     0.0000 ****
11845 OIL    36.017000  -14.824000  -99.106000 O    4173 GOL     0.0000 ****
11846 OIL   -46.910000   42.850000   -1.127000 O    4174 GOL     0.0000 ****
11847 OIL   -45.890000  -66.409000   -1.104000 O    4175 GOL     0.0000 ****
11848 OIL   -12.429000  -64.506000   -2.167000 O    4176 GOL     0.0000 ****
11849 OIL    10.624000  -43.132000   91.004000 O    4177 GOL     0.0000 ****
11850 OIL   -45.375000   90.157000   12.824000 O    4178 GOL     0.0000 ****
11851 OIL    75.160000   -1.756000   56.106000 O    4179 GOL     0.0000 ****
11852 OIL    77.130000   58.134000   -9.964000 O    4180 GOL     0.0000 ****
11853 OIL    11.812000   87.845000  -34.205000 O    4181 GOL     0.0000 ****
11854 OIL    37.023000  -84.572000  -42.208000 O    4182 GOL     0.0000 ****
11855 OIL    77.360000   21.677000   65.235000 O    4183 GOL     0.0000 ****
11856 OIL   -43.402000   71.060000   62.998000 O    4184 GOL     0.0000 ****
11857 OIL   -95.382000  -32.889000  -16.943000 O    4185 GOL     0.0000 ****
11858 OIL   -62.715000   15.423000  -60.667000 O    4186 GOL     0.0000 ****
11859 OIL   105.745000    1.462000   -6.343000 O    4187 GOL     0.0000 ****
11860 OIL     9.115000  -69.062000  -20.471000 O    4188 GOL     0.0000 ****
11861 OIL   -40.877000   -1.220000  -74.513000 O    4189 GOL     0.0000 ****
11862 OIL   -58.806000   -5.374000  -63.553000 O    4190 GOL     0.0000 ****
11863 OIL   -81.440000   54.668000  -11.381000 O    4191 GOL     0.0000 ****
11864 OIL    66.640000    1.560000   72.952000 O    4192 GOL     0.0000 ****
11865 OIL    33.699000  -27.995000  -94.392000 O    4193 GOL     0.0000 ****
11866 OIL    25.308000  -63.215000  -43.946000 O    4194 GOL     0.0000 ****
11867 OIL     0.224000  -46.467000  -57.981000 O    4195 GOL     0.0000 ****
11868 OIL   -51.495000  -18.300000  -18.527000 O    4196 GOL     0.0000 ****
11869 OIL     8.013000  101.469000   12.905000 O    4197 GOL     0.0000 ****
11870 OIL   -24.566000   65.277000   44.870000 O    4198 GOL     0.0000 ****
11871 OIL   -14.599000   85.842000   -0.555000 O    4199 GOL     0.0000 ****
11872 OIL   -36.731000   16.921000  -93.285000 O    4200 GOL     0.0000 ****
11873 OIL   -52.877000   68.729000   33.022000 O    4201 GOL     0.0000 ****
11874 OIL   -90.282000    9.206000  -36.668000 O    4202 GOL     0.0000 ****
11875 OIL   -56.065000  -49.982000    2.808000 O    4203 GOL     0.0000 ****
11876 OIL   -38.265000  -80.882000    9.108000 O    4204 GOL     0.0000 ****
11877 OIL   -63.587000   58.502000   37.046000 O    4205 GOL     0.0000 ****
11878 OIL    20.406000   57.967000  -72.195000 O    4206 GOL     0.0000 ****
11879 OIL   -64.999000  -45.714000  -40.407000 O    4207 GOL     0.0000 ****
11880 OIL  -100.804000   14.070000   21.333000 O    4208 GOL     0.0000 ****
11881 OIL    51.614000   71.521000  -16.340000 O    4209 GOL     0.0000 ****
11882 OIL   -45.330000  -91.757000   -2.900000 O    4210 GOL     0.0000 ****
11883 OIL   -41.244000   74.125000  -50.097000 O    4211 GOL     0.0000 ****
11884 OIL   -35.386000  -71.801000  -22.592000 O    4212 GOL     0.0000 ****
11885 OIL   -65.951000  -34.593000   58.523000 O    4213 GOL     0.0000 ****
11886 OIL   -17.812000  -56.768000  -21.815000 O    4214 GOL     0.0000 ****
11887 OIL    75.023000  -18.055000  -53.060000 O    4215 GOL     0.0000 ****
11888 OIL    -8.246000   20.318000  -73.778000 O    4216 GOL     0.0000 ****
11889 OIL   -70.727000    7.815000  -52.289000 O    4217 GOL     0.0000 ****
11890 OIL    75.539000  -74.645000   13.090000 O    4218 GOL     0.0000 ****
11891 OIL    63.135000   73.307000   21.556000 O    4219 GOL     0.0000 ****
11892 OIL   -28.294000   -2.431000  -68.316000 O    4220 GOL     0.0000 ****
11893 OIL   -79.759000   -1.742000  -23.712000 O    4221 GOL     0.0000 ****
11894 OIL   -55.939000   16.508000  -65.150000 O    4222 GOL     0.0000 ****
11895 OIL   -56.239000   75.130000   27.371000 O    4223 GOL     0.0000 ****
11896 OIL   -10.766000   -3.269000  -81.262000 O    4224 GOL     0.0000 ****
11897 OIL    12.325000   73.697000  -73.779000 O    4225 GOL     0.0000 ****
11898 OIL    49.773000   54.357000   65.328000 O    4226 GOL     0.0000 ****
11899 OIL   -30.345000  -47.491000   52.862000 O    4227 GOL     0.0000 ****
11900 OIL   -88.237000   21.733000   36.170000 O    4228 GOL     0.0000 ****
11901 OIL   -50.895000    7.806000  -43.273000 O    4229 GOL     0.0000 ****
11902 OIL   -95.067000  -18.154000   12.459000 O    4230 GOL     0.0000 ****
11903 OIL    -2.595000   31.440000  -70.009000 O    4231 GOL     0.0000 ****
11904 OIL    -0.981000   31.786000  -70.902000 O    4232 GOL     0.0000 ****
11905 OIL    44.376000   80.358000  -40.054000 O    4233 GOL     0.0000 ****
11906 OIL   -61.174000   -6.312000   -9.618000 O    4234 GOL     0.0000 ****
11907 OIL   -24.527000   41.151000  -92.771000 O    4235 GOL     0.0000 ****
11908 OIL    70.954000   79.308000   -6.839000 O    4236 GOL     0.0000 ****
11909 OIL    13.016000  -91.354000    8.224000 O    4237 GOL     0.0000 ****
11910 OIL    -2.181000  -83.647000    0.349000 O    4238 GOL     0.0000 ****
11911 OIL   -29.502000  -71.544000  -31.230000 O    4239 GOL     0.0000 ****
11912 OIL    11.394000   18.525000   96.223000 O    4240 GOL     0.0000 ****
11913 OIL   -29.330000  -62.005000   80.354000 O    4241 GOL     0.0000 ****
11914 OIL    29.815000  -53.178000   75.945000 O    4242 GOL     0.0000 ****
11915 OIL   -29.164000   89.465000   33.439000 O    4243 GOL     0.0000 ****
11916 OIL    -0.646000   68.667000  -23.114000 O    4244 GOL     0.0000 ****
11917 OIL    -1.832000   38.804000   82.969000 O    4245 GOL     0.0000 ****
11918 OIL    12.190000   46.185000   84.296000 O    4246 GOL     0.0000 ****
11919 OIL   -73.906000   17.903000    6.048000 O    4247 GOL     0.0000 ****
11920 OIL   -87.429000   43.742000  -17.532000 O    4248 GOL     0.0000 ****
11921 OIL  -103.325000   14.372000   22.180000 O    4249 GOL     0.0000 ****
11922 OIL   -19.484000   64.158000  -80.866000 O    4250 GOL     0.0000 ****
11923 OIL    62.096000   41.021000   70.015000 O    4251 GOL     0.0000 ****
11924 OIL     5.646000   35.708000   92.923000 O    4252 GOL     0.0000 ****
11925 OIL     1.022000  -54.308000   48.937000 O    4253 GOL     0.0000 ****
11926 OIL     9.365000  -22.591000   97.819000 O    4254 GOL     0.0000 ****
11927 OIL   -56.186000   12.544000  -32.224000 O    4255 GOL     0.0000 ****
11928 OIL    41.629000  -87.636000    2.700000 O    4256 GOL     0.0000 ****
11929 OIL   -69.071000   36.993000  -45.244000 O    4257 GOL     0.0000 ****
11930 OIL   -89.436000   36.857000    4.462000 O    4258 GOL     0.0000 ****
11931 OIL     5.795000   29.648000   70.732000 O    4259 GOL     0.0000 ****
11932 OIL    95.221000   25.434000    5.738000 O    4260 GOL     0.0000 ****
11933 OIL   -35.750000   56.975000   56.196000 O    4261 GOL     0.0000 ****
11934 OIL    78.777000  -26.907000   60.830000 O    4262 GOL     0.0000 ****
11935 OIL    10.692000  -93.551000    3.100000 O    4263 GOL     0.0000 ****
11936 OIL   -84.264000  -36.044000  -11.633000 O    4264 GOL     0.0000 ****
11937 OIL    -6.329000   19.653000  -69.872000 O    4265 GOL     0.0000 ****
11938 OIL    39.518000  -92.725000    5.472000 O    4266 GOL     0.0000 ****
11939 OIL   -77.891000   -1.322000   25.364000 O    4267 GOL     0.0000 ****
11940 OIL   -27.757000   34.578000   92.010000 O    4268 GOL     0.0000 ****
11941 OIL   -56.270000   78.770000    3.510000 O    4269 GOL     0.0000 ****
11942 OIL     4.954000   57.697000   85.514000 O    4270 GOL     0.0000 ****
11943 OIL   -72.050000   53.349000   57.700000 O    4271 GOL     0.0000 ****
11944 OIL    50.217000   21.294000   67.582000 O    4272 GOL     0.0000 ****
11945 OIL   -63.306000  -17.369000   33.778000 O    4273 GOL     0.0000 ****
11946 OIL    -5.366000    0.513000   66.978000 O    4274 GOL     0.0000 ****
11947 OIL     4.366000 -101.431000  -15.066000 O    4275 GOL     0.0000 ****
11948 OIL    71.218000   66.680000   -8.359000 O    4276 GOL     0.0000 ****
11949 OIL     6.439000   78.865000  -36.270000 O    4277 GOL     0.0000 ****
11950 OIL   -50.676000   49.981000  -70.338000 O    4278 GOL     0.0000 ****
11951 OIL   -42.593000  -86.777000    7.669000 O    4279 GOL     0.0000 ****
11952 OIL   -29.244000   -7.382000   59.425000 O    4280 GOL     0.0000 ****
11953 OIL   -69.149000   58.579000    3.325000 O    4281 GOL     0.0000 ****
11954 OIL    22.469000   63.072000   36.677000 O    4282 GOL     0.0000 ****
11955 OIL   -44.820000  -12.455000  -78.876000 O    4283 GOL     0.0000 ****
11956 OIL    16.021000  -21.966000  -82.248000 O    4284 GOL     0.0000 ****
11957 OIL   -44.520000  -34.394000   -0.153000 O    4285 GOL     0.0000 ****
11958 OIL    -4.221000   44.858000   65.634000 O    4286 GOL     0.0000 ****
11959 OIL    19.380000   77.745000   23.800000 O    4287 GOL     0.0000 ****
11960 OIL   -29.849000   22.184000  -64.193000 O    4288 GOL     0.0000 ****
11961 OIL    79.138000   35.736000  -61.236000 O    4289 GOL     0.0000 ****
11962 OIL   -64.285000   77.109000   -4.371000 O    4290 GOL     0.0000 ****
11963 OIL   -40.856000  -68.751000  -64.517000 O    4291 GOL     0.0000 ****
11964 OIL   -57.360000  -65.069000   22.987000 O    4292 GOL     0.0000 ****
11965 OIL   -72.193000  -11.637000   47.554000 O    4293 GOL     0.0000 ****
11966 OIL    17.075000   33.608000  -82.714000 O    4294 GOL     0.0000 ****
11967 OIL    96.847000   18.775000    5.288000 O    4295 GOL     0.0000 ****
11968 OIL    66.025000  -67.458000   10.508000 O    4296 GOL     0.0000 ****
11969 OIL   -69.903000  -24.676000   42.934000 O    4297 GOL     0.0000 ****
11970 OIL   -28.023000  -26.027000   41.045000 O    4298 GOL     0.0000 ****
11971 OIL    22.472000  -52.357000  -57.526000 O    4299 GOL     0.0000 ****
11972 OIL  -100.477000    3.518000   -5.118000 O    4300 GOL     0.0000 ****
11973 OIL   -58.055000  -33.462000   37.628000 O    4301 GOL     0.0000 ****
11974 OIL   -36.206000  -30.510000   44.371000 O    4302 GOL     0.0000 ****
11975 OIL   -38.095000  -93.670000   15.898000 O    4303 GOL     0.0000 ****
11976 OIL    94.781000    5.412000   28.971000 O    4304 GOL     0.0000 ****
11977 OIL   -46.825000  -74.515000  -29.254000 O    4305 GOL     0.0000 ****
11978 OIL   -17.413000   57.515000   23.783000 O    4306 GOL     0.0000 ****
11979 OIL    67.467000  -27.022000  -71.471000 O    4307 GOL     0.0000 ****
11980 OIL   -43.465000  -20.944000  -47.790000 O    4308 GOL     0.0000 ****
11981 OIL   -33.775000   16.232000   97.051000 O    4309 GOL     0.0000 ****
11982 OIL    -1.478000   47.440000   82.398000 O    4310 GOL     0.0000 ****
11983 OIL   -12.816000   63.104000  -68.228000 O    4311 GOL     0.0000 ****
11984 OIL    15.343000  -91.468000  -26.617000 O    4312 GOL     0.0000 ****
11985 OIL    21.372000  -71.694000   70.952000 O    4313 GOL     0.0000 ****
11986 OIL   -47.350000  -19.060000  -23.848000 O    4314 GOL     0.0000 ****
11987 OIL   -44.488000   25.592000   -9.465000 O    4315 GOL     0.0000 ****
11988 OIL   -16.420000   73.249000   42.553000 O    4316 GOL     0.0000 ****
11989 OIL    41.265000    3.602000  -75.202000 O    4317 GOL     0.0000 ****
11990 OIL    -0.629000  -70.473000  -69.268000 O    4318 GOL     0.0000 ****
11991 OIL    29.188000   63.623000   43.513000 O    4319 GOL     0.0000 ****
11992 OIL   -69.852000   64.858000   46.280000 O    4320 GOL     0.0000 ****
11993 OIL   -27.323000    4.418000  -61.939000 O    4321 GOL     0.0000 ****
11994 OIL     0.496000   69.291000  -77.617000 O    4322 GOL     0.0000 ****
11995 OIL    71.517000  -46.438000   40.201000 O    4323 GOL     0.0000 ****
11996 OIL   -19.379000   45.406000  -67.765000 O    4324 GOL     0.0000 ****
11997 OIL   -78.235000   43.090000  -31.068000 O    4325 GOL     0.0000 ****
11998 OIL   -28.874000   40.220000   47.097000 O    4326 GOL     0.0000 ****
11999 OIL   -56.512000  -76.141000  -49.600000 O    4327 GOL     0.0000 ****
12000 OIL   -28.393000   80.047000   -1.460000 O    4328 GOL     0.0000 ****
12001 OIL   -34.928000  -65.444000  -44.622000 O    4329 GOL     0.0000 ****
12002 OIL    80.069000   67.686000  -11.691000 O    4330 GOL     0.0000 ****
12003 OIL    80.720000  -61.850000   25.460000 O    4331 GOL     0.0000 ****
12004 OIL    54.840000   64.663000   34.448000 O    4332 GOL     0.0000 ****
12005 OIL   -78.334000    8.931000  -61.821000 O    4333 GOL     0.0000 ****
12006 OIL   -34.296000  -63.433000   49.686000 O    4334 GOL     0.0000 ****
12007 OIL   -12.348000   63.743000  -46.215000 O    4335 GOL     0.0000 ****
12008 OIL   -23.473000  -61.530000   28.255000 O    4336 GOL     0.0000 ****
12009 OIL   -58.133000   61.025000   63.801000 O    4337 GOL     0.0000 ****
12010 OIL   -19.736000   72.072000  -59.407000 O    4338 GOL     0.0000 ****
12011 OIL    -5.914000  -85.835000   -6.907000 O    4339 GOL     0.0000 ****
12012 OIL   -74.094000   43.066000   18.084000 O    4340 GOL     0.0000 ****
12013 OIL   -73.745000    6.938000   68.323000 O    4341 GOL     0.0000 ****
12014 OIL   -55.489000   33.221000  -53.223000 O    4342 GOL     0.0000 ****
12015 OIL   -67.951000  -67.912000  -15.388000 O    4343 GOL     0.0000 ****
12016 OIL   -45.199000  -59.467000   49.546000 O    4344 GOL     0.0000 ****
12017 OIL    71.006000   45.864000  -59.945000 O    4345 GOL     0.0000 ****
12018 OIL   -36.723000  -77.593000  -10.276000 O    4346 GOL     0.0000 ****
12019 OIL    38.446000   49.117000   66.573000 O    4347 GOL     0.0000 ****
12020 OIL   -62.628000  -32.728000  -57.584000 O    4348 GOL     0.0000 ****
12021 OIL    41.307000  -47.937000   73.026000 O    4349 GOL     0.0000 ****
12022 OIL   -86.884000   52.697000  -28.840000 O    4350 GOL     0.0000 ****
12023 OIL   -45.746000  -76.833000   22.907000 O    4351 GOL     0.0000 ****
12024 OIL    -5.966000  -10.084000   63.234000 O    4352 GOL     0.0000 ****
12025 OIL    46.422000   77.832000   31.265000 O    4353 GOL     0.0000 ****
12026 OIL   -40.872000  -86.793000  -28.093000 O    4354 GOL     0.0000 ****
12027 OIL     6.241000   72.106000   28.463000 O    4355 GOL     0.0000 ****
12028 OIL    31.422000   80.328000  -17.556000 O    4356 GOL     0.0000 ****
12029 OIL   -53.524000  -77.482000  -44.500000 O    4357 GOL     0.0000 ****
12030 OIL   -44.822000  -45.746000   15.594000 O    4358 GOL     0.0000 ****
12031 OIL    97.309000   39.877000  -10.852000 O    4359 GOL     0.0000 ****
12032 OIL   -87.222000    4.561000   13.417000 O    4360 GOL     0.0000 ****
12033 OIL     2.718000  -22.949000   64.221000 O    4361 GOL     0.0000 ****
12034 OIL    15.355000   65.777000   54.374000 O    4362 GOL     0.0000 ****
12035 OIL     5.989000  -73.404000   66.130000 O    4363 GOL     0.0000 ****
12036 OIL   -94.739000   28.776000   23.702000 O    4364 GOL     0.0000 ****
12037 OIL   -17.538000  -61.017000   16.404000 O    4365 GOL     0.0000 ****
12038 OIL   -43.770000  -27.752000   86.838000 O    4366 GOL     0.0000 ****
12039 OIL    -6.375000  -72.672000   46.495000 O    4367 GOL     0.0000 ****
12040 OIL   -17.581000   73.470000   52.926000 O    4368 GOL     0.0000 ****
12041 OIL   -32.881000  -33.523000  -46.098000 O    4369 GOL     0.0000 ****
12042 OIL   -13.999000  -57.893000  -80.513000 O    4370 GOL     0.0000 ****
12043 OIL   -55.528000   16.321000   28.150000 O    4371 GOL     0.0000 ****
12044 OIL   -11.574000  -69.929000    1.327000 O    4372 GOL     0.0000 ****
12045 OIL   -62.713000    0.373000  -55.986000 O    4373 GOL     0.0000 ****
12046 OIL     3.110000  -97.732000   -4.159000 O    4374 GOL     0.0000 ****
12047 OIL   -73.990000  -23.978000   56.108000 O    4375 GOL     0.0000 ****
12048 OIL   -21.903000   91.225000  -30.136000 O    4376 GOL     0.0000 ****
12049 OIL     7.978000   46.487000   60.354000 O    4377 GOL     0.0000 ****
12050 OIL   -72.971000   26.582000   52.531000 O    4378 GOL     0.0000 ****
12051 OIL    72.728000  -66.215000  -17.618000 O    4379 GOL     0.0000 ****
12052 OIL   -14.585000  -97.121000  -23.798000 O    4380 GOL     0.0000 ****
12053 OIL   -39.492000    5.397000  -56.468000 O    4381 GOL     0.0000 ****
12054 OIL   -19.245000   20.369000   70.513000 O    4382 GOL     0.0000 ****
12055 OIL   -83.768000  -30.479000  -19.058000 O    4383 GOL     0.0000 ****
12056 OIL   -27.445000  -77.499000  -52.151000 O    4384 GOL     0.0000 ****
12057 OIL   -89.002000  -46.644000   17.789000 O    4385 GOL     0.0000 ****
12058 OIL    -9.017000   49.088000  -93.233000 O    4386 GOL     0.0000 ****
12059 OIL    83.110000   53.884000   41.368000 O    4387 GOL     0.0000 ****
12060 OIL   -40.890000   65.245000   30.520000 O    4388 GOL     0.0000 ****
12061 OIL   -58.015000  -31.345000   70.915000 O    4389 GOL     0.0000 ****
12062 OIL   -89.529000   34.324000   -7.220000 O    4390 GOL     0.0000 ****
12063 OIL   -94.368000  -21.806000   15.442000 O    4391 GOL     0.0000 ****
12064 OIL    41.822000  -64.493000  -37.584000 O    4392 GOL     0.0000 ****
12065 OIL    69.449000   65.338000   -7.216000 O    4393 GOL     0.0000 ****
12066 OIL   -22.557000  -35.805000   55.257000 O    4394 GOL     0.0000 ****
12067 OIL   -77.570000   47.003000  -20.664000 O    4395 GOL     0.0000 ****
12068 OIL   -57.998000  -40.085000  -15.413000 O    4396 GOL     0.0000 ****
12069 OIL   -45.525000  -54.199000  -42.042000 O    4397 GOL     0.0000 ****
12070 OIL   -27.495000   52.738000   62.954000 O    4398 GOL     0.0000 ****
12071 OIL   -15.521000   42.425000   85.675000 O    4399 GOL     0.0000 ****
12072 OIL   -49.850000   44.924000   81.853000 O    4400 GOL     0.0000 ****
12073 OIL   -44.631000   -6.300000   77.144000 O    4401 GOL     0.0000 ****
12074 OIL   -85.049000   -5.027000   12.713000 O    4402 GOL     0.0000 ****
12075 OIL   -97.566000   -0.948000   44.058000 O    4403 GOL     0.0000 ****
12076 OIL   100.039000    1.420000   32.440000 O    4404 GOL     0.0000 ****
12077 OIL   -42.309000  -41.662000   85.711000 O    4405 GOL     0.0000 ****
12078 OIL   -45.701000  -40.838000   -2.393000 O    4406 GOL     0.0000 ****
12079 OIL   -68.900000  -55.880000  -11.704000 O    4407 GOL     0.0000 ****
12080 OIL   -92.745000   14.081000   17.374000 O    4408 GOL     0.0000 ****
12081 OIL   -83.979000  -35.551000   15.724000 O    4409 GOL     0.0000 ****
12082 OIL    43.704000   66.798000   60.160000 O    4410 GOL     0.0000 ****
12083 OIL   -46.693000   20.762000    8.212000 O    4411 GOL     0.0000 ****
12084 OIL  -104.079000   10.885000   -9.721000 O    4412 GOL     0.0000 ****
12085 OIL   -42.644000   69.916000  -45.700000 O    4413 GOL     0.0000 ****
12086 OIL    49.930000   72.138000   60.818000 O    4414 GOL     0.0000 ****
12087 OIL   -33.991000   59.648000  -30.908000 O    4415 GOL     0.0000 ****
12088 OIL    53.848000   31.849000  -63.788000 O    4416 GOL     0.0000 ****
12089 OIL   -67.449000   -1.207000  -29.478000 O    4417 GOL     0.0000 ****
12090 OIL   -53.933000  -21.129000   82.577000 O    4418 GOL     0.0000 ****
12091 OIL    68.804000   35.154000  -68.238000 O    4419 GOL     0.0000 ****
12092 OIL   -27.238000   75.856000   13.479000 O    4420 GOL     0.0000 ****
12093 OIL    45.333000   43.578000   68.721000 O    4421 GOL     0.0000 ****
12094 OIL   101.929000    9.697000   -9.461000 O    4422 GOL     0.0000 ****
12095 OIL    42.034000   33.842000   73.313000 O    4423 GOL     0.0000 ****
12096 OIL  -100.015000   24.071000  -30.750000 O    4424 GOL     0.0000 ****
12097 OIL     5.784000   12.573000  -96.473000 O    4425 GOL     0.0000 ****
12098 OIL    -4.381000   90.717000  -43.367000 O    4426 GOL     0.0000 ****
12099 OIL   -88.994000   18.793000  -42.601000 O    4427 GOL     0.0000 ****
12100 OIL   -48.630000   38.507000  -25.754000 O    4428 GOL     0.0000 ****
12101 OIL   -80.305000    6.885000   70.211000 O    4429 GOL     0.0000 ****
12102 OIL   -88.199000   -7.544000    6.448000 O    4430 GOL     0.0000 ****
12103 OIL    32.351000   74.075000  -20.612000 O    4431 GOL     0.0000 ****
12104 OIL   -72.244000  -48.187000  -29.006000 O    4432 GOL     0.0000 ****
12105 OIL    16.404000  -60.459000  -45.898000 O    4433 GOL     0.0000 ****
12106 OIL    25.212000   45.969000  -78.501000 O    4434 GOL     0.0000 ****
12107 OIL   -40.663000   -7.191000   83.654000 O    4435 GOL     0.0000 ****
12108 OIL     6.755000  -29.242000   72.089000 O    4436 GOL     0.0000 ****
12109 OIL   -89.156000    5.001000  -52.273000 O    4437 GOL     0.0000 ****
12110 OIL   -39.720000  -15.537000  -77.064000 O    4438 GOL     0.0000 ****
12111 OIL    55.685000   77.935000   -5.334000 O    4439 GOL     0.0000 ****
12112 OIL   -16.562000  -58.106000   -6.702000 O    4440 GOL     0.0000 ****
12113 OIL     6.771000   55.250000   60.653000 O    4441 GOL     0.0000 ****
12114 OIL   -10.178000   22.879000   87.749000 O    4442 GOL     0.0000 ****
12115 OIL   -37.427000  -19.697000  -53.618000 O    4443 GOL     0.0000 ****
12116 OIL   -67.621000  -65.960000   32.752000 O    4444 GOL     0.0000 ****
12117 OIL   -74.413000   31.529000   69.397000 O    4445 GOL     0.0000 ****
12118 OIL   -22.703000  -49.692000  -90.022000 O    4446 GOL     0.0000 ****
12119 OIL    -6.484000   25.886000   80.322000 O    4447 GOL     0.0000 ****
12120 OIL   -92.242000   -3.112000  -27.737000 O    4448 GOL     0.0000 ****
12121 OIL    86.095000  -44.009000    1.516000 O    4449 GOL     0.0000 ****
12122 OIL    32.112000  -92.129000  -20.493000 O    4450 GOL     0.0000 ****
12123 OIL   -46.853000   21.414000  -61.085000 O    4451 GOL     0.0000 ****
12124 OIL    27.279000  -19.724000   86.630000 O    4452 GOL     0.0000 ****
12125 OIL   -69.402000   30.531000  -64.594000 O    4453 GOL     0.0000 ****
12126 OIL   -13.745000   72.351000  -27.194000 O    4454 GOL     0.0000 ****
12127 OIL   -81.555000   18.433000  -44.264000 O    4455 GOL     0.0000 ****
12128 OIL    61.113000  -54.518000   58.120000 O    4456 GOL     0.0000 ****
12129 OIL    16.551000  -92.365000   49.060000 O    4457 GOL     0.0000 ****
12130 OIL   103.515000   19.695000  -14.484000 O    4458 GOL     0.0000 ****
12131 OIL    70.686000  -62.168000  -41.264000 O    4459 GOL     0.0000 ****
12132 OIL   -55.545000  -52.553000   24.028000 O    4460 GOL     0.0000 ****
12133 OIL   -70.798000   10.587000   75.550000 O    4461 GOL     0.0000 ****
12134 OIL   -27.066000  -79.147000  -48.121000 O    4462 GOL     0.0000 ****
12135 OIL   -42.881000  -71.484000   27.135000 O    4463 GOL     0.0000 ****
12136 OIL     9.452000   42.878000  -87.154000 O    4464 GOL     0.0000 ****
12137 OIL   -24.325000   59.233000  -53.300000 O    4465 GOL     0.0000 ****
12138 OIL    11.732000  -42.761000   62.449000 O    4466 GOL     0.0000 ****
12139 OIL   -48.853000   38.271000   -3.895000 O    4467 GOL     0.0000 ****
12140 OIL   -59.581000   -7.122000   -0.445000 O    4468 GOL     0.0000 ****
12141 OIL    -9.653000  -48.810000   68.578000 O    4469 GOL     0.0000 ****
12142 OIL    56.335000  -14.138000  -78.970000 O    4470 GOL     0.0000 ****
12143 OIL   -21.625000   43.545000  -52.577000 O    4471 GOL     0.0000 ****
12144 OIL   -93.357000  -39.724000  -28.545000 O    4472 GOL     0.0000 ****
12145 OIL   -22.596000  -75.275000  -15.520000 O    4473 GOL     0.0000 ****
12146 OIL   -33.812000   38.862000  -27.324000 O    4474 GOL     0.0000 ****
12147 OIL   -54.659000    2.694000  -13.274000 O    4475 GOL     0.0000 ****
12148 OIL    83.604000   46.246000   18.602000 O    4476 GOL     0.0000 ****
12149 OIL     2.423000   -6.198000   90.123000 O    4477 GOL     0.0000 ****
12150 OIL   -14.250000  -71.293000   78.117000 O    4478 GOL     0.0000 ****
12151 OIL   -59.388000  -26.141000  -78.549000 O    4479 GOL     0.0000 ****
12152 OIL    60.374000    8.740000  -82.935000 O    4480 GOL     0.0000 ****
12153 OIL   -27.184000  -21.934000   57.417000 O    4481 GOL     0.0000 ****
12154 OIL    21.404000   85.231000   -4.587000 O    4482 GOL     0.0000 ****
12155 OIL   -54.124000  -59.464000  -36.293000 O    4483 GOL     0.0000 ****
12156 OIL     8.399000    3.617000  -95.237000 O    4484 GOL     0.0000 ****
12157 OIL   -13.296000  -49.348000   62.892000 O    4485 GOL     0.0000 ****
12158 OIL   -82.081000    1.791000  -39.859000 O    4486 GOL     0.0000 ****
12159 OIL    -3.070000   73.067000   60.982000 O    4487 GOL     0.0000 ****
12160 OIL   -85.800000   19.349000   33.170000 O    4488 GOL     0.0000 ****
12161 OIL    73.052000   53.388000  -22.290000 O    4489 GOL     0.0000 ****
12162 OIL    27.465000  -62.318000  -44.808000 O    4490 GOL     0.0000 ****
12163 OIL   -45.841000   37.485000  -54.810000 O    4491 GOL     0.0000 ****
12164 OIL   -96.744000   14.734000   -7.753000 O    4492 GOL     0.0000 ****
12165 OIL   -37.726000   38.231000   55.863000 O    4493 GOL     0.0000 ****
12166 OIL    89.820000   25.045000  -50.426000 O    4494 GOL     0.0000 ****
12167 OIL   -21.345000   73.204000    8.536000 O    4495 GOL     0.0000 ****
12168 OIL   -20.651000   68.554000  -49.558000 O    4496 GOL     0.0000 ****
12169 OIL    28.054000   87.152000   37.818000 O    4497 GOL     0.0000 ****
12170 OIL    10.574000  -44.140000  -64.688000 O    4498 GOL     0.0000 ****
12171 OIL    87.643000  -54.452000    9.361000 O    4499 GOL     0.0000 ****
12172 OIL   -43.159000   53.530000   76.995000 O    4500 GOL     0.0000 ****
12173 OIL  -104.435000   -7.910000  -11.480000 O    4501 GOL     0.0000 ****
12174 OIL    37.358000   79.453000  -12.538000 O    4502 GOL     0.0000 ****
12175 OIL   -49.997000   58.282000   65.398000 O    4503 GOL     0.0000 ****
12176 OIL   -44.569000   68.326000  -32.134000 O    4504 GOL     0.0000 ****
12177 OIL     2.215000  -56.158000   80.010000 O    4505 GOL     0.0000 ****
12178 OIL    74.892000    6.769000   65.696000 O    4506 GOL     0.0000 ****
12179 OIL   -66.342000  -53.783000   30.412000 O    4507 GOL     0.0000 ****
12180 OIL   -25.913000  -37.920000  -67.996000 O    4508 GOL     0.0000 ****
12181 OIL    14.770000  -77.576000  -51.964000 O    4509 GOL     0.0000 ****
12182 OIL   -87.597000  -22.856000  -39.664000 O    4510 GOL     0.0000 ****
12183 OIL    -0.826000  -90.258000  -38.852000 O    4511 GOL     0.0000 ****
12184 OIL   -27.729000   89.488000   -2.530000 O    4512 GOL     0.0000 ****
12185 OIL   -56.775000  -74.945000   -2.429000 O    4513 GOL     0.0000 ****
12186 OIL    62.568000  -59.848000   60.729000 O    4514 GOL     0.0000 ****
12187 OIL    11.559000  -60.730000   73.596000 O    4515 GOL     0.0000 ****
12188 OIL   -48.702000   18.841000   -6.744000 O    4516 GOL     0.0000 ****
12189 OIL   -69.756000   -7.016000  -55.772000 O    4517 GOL     0.0000 ****
12190 OIL    98.633000   29.862000   15.744000 O    4518 GOL     0.0000 ****
12191 OIL   -68.703000   58.051000  -31.442000 O    4519 GOL     0.0000 ****
12192 OIL   -70.261000  -34.576000   50.869000 O    4520 GOL     0.0000 ****
12193 OIL    43.425000   29.821000   92.971000 O    4521 GOL     0.0000 ****
12194 OIL    51.829000  -36.366000   60.190000 O    4522 GOL     0.0000 ****
12195 OIL    98.221000    3.151000  -30.981000 O    4523 GOL     0.0000 ****
12196 OIL   -29.182000   57.721000  -82.054000 O    4524 GOL     0.0000 ****
12197 OIL    93.784000    6.611000   28.520000 O    4525 GOL     0.0000 ****
12198 OIL   -78.946000  -28.054000   18.126000 O    4526 GOL     0.0000 ****
12199 OIL   -50.414000   46.481000  -80.508000 O    4527 GOL     0.0000 ****
12200 OIL   -15.911000  -70.117000   -7.664000 O    4528 GOL     0.0000 ****
12201 OIL   -32.042000   42.935000   15.022000 O    4529 GOL     0.0000 ****
12202 OIL   -92.144000   20.706000  -24.042000 O    4530 GOL     0.0000 ****
12203 OIL   -45.799000   -1.739000  -49.228000 O    4531 GOL     0.0000 ****
12204 OIL   -31.208000  -30.610000   92.819000 O    4532 GOL     0.0000 ****
12205 OIL   -57.259000  -28.519000  -76.721000 O    4533 GOL     0.0000 ****
12206 OIL    36.574000    4.250000   78.846000 O    4534 GOL     0.0000 ****
12207 OIL   -68.730000   10.891000  -24.828000 O    4535 GOL     0.0000 ****
12208 OIL    25.832000  -28.614000   79.572000 O    4536 GOL     0.0000 ****
12209 OIL   -12.787000    9.268000   87.792000 O    4537 GOL     0.0000 ****
12210 OIL   -38.728000  -60.642000   29.386000 O    4538 GOL     0.0000 ****
12211 OIL   -81.673000  -58.929000  -21.128000 O    4539 GOL     0.0000 ****
12212 OIL     6.888000   66.684000   78.887000 O    4540 GOL     0.0000 ****
12213 OIL   -44.739000  -72.428000   10.370000 O    4541 GOL     0.0000 ****
12214 OIL   -17.850000  -69.211000   18.984000 O    4542 GOL     0.0000 ****
12215 OIL    30.542000   61.850000   48.744000 O    4543 GOL     0.0000 ****
12216 OIL    30.952000  -82.849000  -19.077000 O    4544 GOL     0.0000 ****
12217 OIL   -79.122000  -14.173000    1.351000 O    4545 GOL     0.0000 ****
12218 OIL   -63.240000  -49.161000   70.864000 O    4546 GOL     0.0000 ****
12219 OIL    27.689000   -6.623000   83.867000 O    4547 GOL     0.0000 ****
12220 OIL   -38.069000   78.255000   31.728000 O    4548 GOL     0.0000 ****
12221 OIL    37.158000   74.977000   46.632000 O    4549 GOL     0.0000 ****
12222 OIL    80.371000   42.227000  -44.788000 O    4550 GOL     0.0000 ****
12223 OIL    -9.315000   31.312000   77.753000 O    4551 GOL     0.0000 ****
12224 OIL    24.263000  -41.070000   84.199000 O    4552 GOL     0.0000 ****
12225 OIL   -81.182000  -42.940000    3.418000 O    4553 GOL     0.0000 ****
12226 OIL    -6.868000  -60.296000   77.374000 O    4554 GOL     0.0000 ****
12227 OIL   -56.767000   18.646000    2.364000 O    4555 GOL     0.0000 ****
12228 OIL    42.275000  -23.220000  -95.029000 O    4556 GOL     0.0000 ****
12229 OIL    -9.827000  -77.197000   -1.595000 O    4557 GOL     0.0000 ****
12230 OIL   -64.983000  -22.373000  -69.623000 O    4558 GOL     0.0000 ****
12231 OIL   -84.551000   27.108000  -32.147000 O    4559 GOL     0.0000 ****
12232 OIL   -25.959000  -78.695000   46.911000 O    4560 GOL     0.0000 ****
12233 OIL   -55.194000   70.192000   -7.148000 O    4561 GOL     0.0000 ****
12234 OIL   -75.242000   62.506000  -31.021000 O    4562 GOL     0.0000 ****
12235 OIL   -27.542000   79.304000   29.163000 O    4563 GOL     0.0000 ****
12236 OIL   -75.272000    5.754000    2.508000 O    4564 GOL     0.0000 ****
12237 OIL     5.882000  100.026000  -30.849000 O    4565 GOL     0.0000 ****
12238 OIL   -51.010000   77.676000  -43.597000 O    4566 GOL     0.0000 ****
12239 OIL    66.778000   11.796000  -69.366000 O    4567 GOL     0.0000 ****
12240 OIL   -58.574000  -50.478000  -54.211000 O    4568 GOL     0.0000 ****
12241 OIL     7.832000  -64.059000   82.895000 O    4569 GOL     0.0000 ****
12242 OIL   -71.862000   21.206000  -58.842000 O    4570 GOL     0.0000 ****
12243 OIL    52.007000  -36.066000   67.705000 O    4571 GOL     0.0000 ****
12244 OIL    16.889000   30.912000   89.335000 O    4572 GOL     0.0000 ****
12245 OIL   -36.783000  -54.332000  -21.632000 O    4573 GOL     0.0000 ****
12246 OIL   -18.394000  -38.621000   95.124000 O    4574 GOL     0.0000 ****
12247 OIL   -28.489000  -65.165000   14.133000 O    4575 GOL     0.0000 ****
12248 OIL    63.524000  -51.422000   49.534000 O    4576 GOL     0.0000 ****
12249 OIL    37.279000   54.551000  -81.227000 O    4577 GOL     0.0000 ****
12250 OIL    79.450000   36.646000   60.600000 O    4578 GOL     0.0000 ****
12251 OIL   -20.366000  -62.136000   65.606000 O    4579 GOL     0.0000 ****
12252 OIL   -88.609000    9.976000   54.269000 O    4580 GOL     0.0000 ****
12253 OIL   -29.595000  -20.194000   56.097000 O    4581 GOL     0.0000 ****
12254 OIL    77.834000   64.198000   -2.022000 O    4582 GOL     0.0000 ****
12255 OIL   100.008000  -23.333000   17.112000 O    4583 GOL     0.0000 ****
12256 OIL   -37.421000  -36.429000   42.860000 O    4584 GOL     0.0000 ****
12257 OIL    81.806000  -59.084000   -5.878000 O    4585 GOL     0.0000 ****
12258 OIL   -21.448000  -28.705000   70.630000 O    4586 GOL     0.0000 ****
12259 OIL   -71.126000  -36.558000    2.064000 O    4587 GOL     0.0000 ****
12260 OIL   -15.777000   37.986000  -91.274000 O    4588 GOL     0.0000 ****
12261 OIL    54.572000   -7.353000   91.942000 O    4589 GOL     0.0000 ****
12262 OIL    97.943000  -11.183000   21.886000 O    4590 GOL     0.0000 ****
12263 OIL   -49.861000   46.324000  -34.918000 O    4591 GOL     0.0000 ****
12264 OIL   -82.899000   -0.303000   30.756000 O    4592 GOL     0.0000 ****
12265 OIL    40.952000   56.873000  -59.733000 O    4593 GOL     0.0000 ****
12266 OIL    37.357000   50.155000   57.588000 O    4594 GOL     0.0000 ****
12267 OIL    91.199000   36.911000  -32.612000 O    4595 GOL     0.0000 ****
12268 OIL    -9.946000  -80.030000  -27.302000 O    4596 GOL     0.0000 ****
12269 OIL    44.565000    1.301000  -80.214000 O    4597 GOL     0.0000 ****
12270 OIL   -10.994000  -48.077000  -47.173000 O    4598 GOL     0.0000 ****
12271 OIL    29.269000  -77.715000   -8.160000 O    4599 GOL     0.0000 ****
12272 OIL   -47.741000   30.414000    4.171000 O    4600 GOL     0.0000 ****
12273 OIL   -57.729000  -49.680000   16.410000 O    4601 GOL     0.0000 ****
12274 OIL    35.988000   56.961000   82.708000 O    4602 GOL     0.0000 ****
12275 OIL    13.237000   96.921000   -2.493000 O    4603 GOL     0.0000 ****
12276 OIL   -60.485000  -28.696000   62.277000 O    4604 GOL     0.0000 ****
12277 OIL   -50.760000  -13.380000   87.195000 O    4605 GOL     0.0000 ****
12278 OIL   -54.112000  -38.651000   47.969000 O    4606 GOL     0.0000 ****
12279 OIL   -67.918000   18.803000  -39.700000 O    4607 GOL     0.0000 ****
12280 OIL   -67.473000   -2.319000  -79.645000 O    4608 GOL     0.0000 ****
12281 OIL    -6.384000  -46.875000  -81.277000 O    4609 GOL     0.0000 ****
12282 OIL    28.668000  -25.344000   72.593000 O    4610 GOL     0.0000 ****
12283 OIL    81.844000   -6.258000  -66.351000 O    4611 GOL     0.0000 ****
12284 OIL   -60.653000   68.159000  -28.356000 O    4612 GOL     0.0000 ****
12285 OIL   -34.455000   46.655000  -27.947000 O    4613 GOL     0.0000 ****
12286 OIL    21.757000   79.769000   33.985000 O    4614 GOL     0.0000 ****
12287 OIL    54.445000  -66.365000  -59.574000 O    4615 GOL     0.0000 ****
12288 OIL   -79.680000   21.964000   56.370000 O    4616 GOL     0.0000 ****
12289 OIL   -42.679000  -39.314000   28.304000 O    4617 GOL     0.0000 ****
12290 OIL   -39.737000   26.955000  -49.256000 O    4618 GOL     0.0000 ****
12291 OIL    59.153000  -34.227000  -62.929000 O    4619 GOL     0.0000 ****
12292 OIL   -23.621000  102.691000   -1.280000 O    4620 GOL     0.0000 ****
12293 OIL   -93.005000  -20.068000  -46.009000 O    4621 GOL     0.0000 ****
12294 OIL     1.045000  -99.541000   29.758000 O    4622 GOL     0.0000 ****
12295 OIL   -40.390000  -58.201000   75.987000 O    4623 GOL     0.0000 ****
12296 OIL   -51.940000   25.797000   19.256000 O    4624 GOL     0.0000 ****
12297 OIL    61.541000  -69.925000  -39.429000 O    4625 GOL     0.0000 ****
12298 OIL   -48.180000  -78.049000    3.244000 O    4626 GOL     0.0000 ****
12299 OIL   -49.113000  -56.596000  -52.629000 O    4627 GOL     0.0000 ****
12300 OIL   -20.868000  -92.043000  -32.837000 O    4628 GOL     0.0000 ****
12301 OIL   -27.289000   73.066000  -53.065000 O    4629 GOL     0.0000 ****
12302 OIL    37.900000   77.552000   38.788000 O    4630 GOL     0.0000 ****
12303 OIL    44.730000  -62.518000   39.819000 O    4631 GOL     0.0000 ****
12304 OIL    22.624000  -15.261000  -93.909000 O    4632 GOL     0.0000 ****
12305 OIL   -59.111000   28.705000   64.470000 O    4633 GOL     0.0000 ****
12306 OIL   -52.345000   72.142000   29.908000 O    4634 GOL     0.0000 ****
12307 OIL    36.525000   84.234000   -0.053000 O    4635 GOL     0.0000 ****
12308 OIL   -52.125000   26.915000  -44.518000 O    4636 GOL     0.0000 ****
12309 OIL   -17.634000   47.972000   82.892000 O    4637 GOL     0.0000 ****
12310 OIL     9.010000   83.034000  -24.588000 O    4638 GOL     0.0000 ****
12311 OIL  -100.674000   11.676000  -16.581000 O    4639 GOL     0.0000 ****
12312 OIL   -73.432000   53.608000   -4.888000 O    4640 GOL     0.0000 ****
12313 OIL    51.101000  -39.031000   70.722000 O    4641 GOL     0.0000 ****
12314 OIL   -93.345000   -1.514000  -43.216000 O    4642 GOL     0.0000 ****
12315 OIL    34.840000  -41.903000   67.627000 O    4643 GOL     0.0000 ****
12316 OIL    31.292000   47.313000   55.608000 O    4644 GOL     0.0000 ****
12317 OIL    71.818000  -71.228000   22.245000 O    4645 GOL     0.0000 ****
12318 OIL   -32.006000    1.578000  -46.803000 O    4646 GOL     0.0000 ****
12319 OIL    -4.002000    8.803000   98.936000 O    4647 GOL     0.0000 ****
12320 OIL   -29.731000  -78.935000   53.939000 O    4648 GOL     0.0000 ****
12321 OIL     3.497000  -98.536000   24.858000 O    4649 GOL     0.0000 ****
12322 OIL   -13.752000  -79.688000  -13.082000 O    4650 GOL     0.0000 ****
12323 OIL   -52.975000  -56.209000   66.706000 O    4651 GOL     0.0000 ****
12324 OIL    85.304000   50.398000  -32.787000 O    4652 GOL     0.0000 ****
12325 OIL    49.722000  -52.703000   63.683000 O    4653 GOL     0.0000 ****
12326 OIL   -70.351000  -43.915000    0.223000 O    4654 GOL     0.0000 ****
12327 OIL    -4.637000   76.343000   37.357000 O    4655 GOL     0.0000 ****
12328 OIL    -3.645000   89.483000  -24.498000 O    4656 GOL     0.0000 ****
12329 OIL   -31.595000   20.076000   72.020000 O    4657 GOL     0.0000 ****
12330 OIL     0.404000   45.124000   75.920000 O    4658 GOL     0.0000 ****
12331 OIL   -18.492000   36.767000  -71.427000 O    4659 GOL     0.0000 ****
12332 OIL    -2.010000 -101.215000   34.433000 O    4660 GOL     0.0000 ****
12333 OIL    80.600000  -15.413000   62.260000 O    4661 GOL     0.0000 ****
12334 OIL    28.521000  -78.043000  -39.774000 O    4662 GOL     0.0000 ****
12335 OIL    31.692000   13.137000  -94.388000 O    4663 GOL     0.0000 ****
12336 OIL   -50.314000   50.303000   75.817000 O    4664 GOL     0.0000 ****
12337 OIL   -18.033000   79.207000   18.794000 O    4665 GOL     0.0000 ****
12338 OIL   -71.182000    8.631000   65.122000 O    4666 GOL     0.0000 ****
12339 OIL    -1.573000  -69.662000  -26.431000 O    4667 GOL     0.0000 ****
12340 OIL   -49.358000   35.453000  -23.197000 O    4668 GOL     0.0000 ****
12341 OIL   -57.138000   15.851000   82.437000 O    4669 GOL     0.0000 ****
12342 OIL   -17.147000    3.743000   68.775000 O    4670 GOL     0.0000 ****
12343 OIL   -59.460000  -87.840000   16.514000 O    4671 GOL     0.0000 ****
12344 OIL   -37.300000   25.342000   94.207000 O    4672 GOL     0.0000 ****
12345 OIL    10.949000  -55.683000   51.193000 O    4673 GOL     0.0000 ****
12346 OIL   -54.995000   47.087000  -38.813000 O    4674 GOL     0.0000 ****
12347 OIL  -105.504000   -8.058000   16.521000 O    4675 GOL     0.0000 ****
12348 OIL   -43.311000  -32.177000   -7.782000 O    4676 GOL     0.0000 ****
12349 OIL   -57.749000  -84.318000  -21.504000 O    4677 GOL     0.0000 ****
12350 OIL    68.518000  -65.021000   -8.964000 O    4678 GOL     0.0000 ****
12351 OIL    31.267000   29.402000   69.717000 O    4679 GOL     0.0000 ****
12352 OIL    41.218000  -43.939000  -65.675000 O    4680 GOL     0.0000 ****
12353 OIL    12.164000  -24.333000   72.588000 O    4681 GOL     0.0000 ****
12354 OIL   -26.772000  -49.833000  -72.199000 O    4682 GOL     0.0000 ****
12355 OIL    44.023000  -83.955000   29.628000 O    4683 GOL     0.0000 ****
12356 OIL   -50.874000  -85.379000  -31.186000 O    4684 GOL     0.0000 ****
12357 OIL     8.965000    7.196000   89.469000 O    4685 GOL     0.0000 ****
12358 OIL   -14.790000   44.096000   89.013000 O    4686 GOL     0.0000 ****
12359 OIL   -30.719000   81.207000   -9.003000 O    4687 GOL     0.0000 ****
12360 OIL    86.095000  -26.430000   47.520000 O    4688 GOL     0.0000 ****
12361 OIL   -81.151000    9.922000   38.604000 O    4689 GOL     0.0000 ****
12362 OIL   -68.908000  -76.513000    0.688000 O    4690 GOL     0.0000 ****
12363 OIL     6.415000   84.806000  -52.882000 O    4691 GOL     0.0000 ****
12364 OIL     1.238000   62.465000   59.317000 O    4692 GOL     0.0000 ****
12365 OIL    55.064000   -2.985000   86.262000 O    4693 GOL     0.0000 ****
12366 OIL   -58.298000  -61.799000  -36.915000 O    4694 GOL     0.0000 ****
12367 OIL   -68.961000   10.312000   35.142000 O    4695 GOL     0.0000 ****
12368 OIL   -61.787000  -63.993000  -33.778000 O    4696 GOL     0.0000 ****
12369 OIL    69.737000   26.113000   64.051000 O    4697 GOL     0.0000 ****
12370 OIL   -28.431000  -61.164000  -73.980000 O    4698 GOL     0.0000 ****
12371 OIL    17.259000  -58.833000  -66.851000 O    4699 GOL     0.0000 ****
12372 OIL   100.637000    9.526000   15.223000 O    4700 GOL     0.0000 ****
12373 OIL   -35.102000  -67.583000  -50.792000 O    4701 GOL     0.0000 ****
12374 OIL    17.860000  -75.166000   -1.515000 O    4702 GOL     0.0000 ****
12375 OIL    14.514000   82.351000   -4.036000 O    4703 GOL     0.0000 ****
12376 OIL    43.078000  -79.963000    5.008000 O    4704 GOL     0.0000 ****
12377 OIL    54.402000  -38.230000   63.090000 O    4705 GOL     0.0000 ****
12378 OIL   -48.412000    7.324000   37.473000 O    4706 GOL     0.0000 ****
12379 OIL     5.481000  -39.501000   91.669000 O    4707 GOL     0.0000 ****
12380 OIL    22.419000  -62.843000  -70.982000 O    4708 GOL     0.0000 ****
12381 OIL    -7.198000  -24.002000   96.690000 O    4709 GOL     0.0000 ****
12382 OIL    14.153000  -67.998000   40.499000 O    4710 GOL     0.0000 ****
12383 OIL     9.503000  -83.722000    0.335000 O    4711 GOL     0.0000 ****
12384 OIL   -18.005000   33.586000  -58.263000 O    4712 GOL     0.0000 ****
12385 OIL   -44.855000   84.005000  -13.842000 O    4713 GOL     0.0000 ****
12386 OIL   -32.105000    2.143000  -99.080000 O    4714 GOL     0.0000 ****
12387 OIL    43.070000  -93.710000   19.266000 O    4715 GOL     0.0000 ****
12388 OIL    -5.981000  -48.620000  -90.659000 O    4716 GOL     0.0000 ****
12389 OIL    68.881000   -7.202000  -68.271000 O    4717 GOL     0.0000 ****
12390 OIL    -7.849000   84.812000   13.865000 O    4718 GOL     0.0000 ****
12391 OIL   -20.463000  -68.642000  -52.715000 O    4719 GOL     0.0000 ****
12392 OIL    38.218000  -16.864000   95.671000 O    4720 GOL     0.0000 ****
12393 OIL    73.371000   24.845000   62.946000 O    4721 GOL     0.0000 ****
12394 OIL   -51.367000   77.136000   -6.767000 O    4722 GOL     0.0000 ****
12395 OIL   -84.528000    1.569000  -61.900000 O    4723 GOL     0.0000 ****
12396 OIL   -53.218000  -34.038000   70.929000 O    4724 GOL     0.0000 ****
12397 OIL   -87.853000   17.106000   44.282000 O    4725 GOL     0.0000 ****
12398 OIL   -20.875000   60.336000   83.865000 O    4726 GOL     0.0000 ****
12399 OIL   -11.050000   38.240000  -71.775000 O    4727 GOL     0.0000 ****
12400 OIL   -41.798000   13.959000   45.896000 O    4728 GOL     0.0000 ****
12401 OIL    50.349000  -65.783000   27.746000 O    4729 GOL     0.0000 ****
12402 OIL     8.334000  -74.669000  -68.138000 O    4730 GOL     0.0000 ****
12403 OIL   -64.933000  -55.306000  -24.730000 O    4731 GOL     0.0000 ****
12404 OIL    16.021000  -52.735000   69.695000 O    4732 GOL     0.0000 ****
12405 OIL    12.241000   10.084000  -91.805000 O    4733 GOL     0.0000 ****
12406 OIL    -9.111000   39.502000  -53.869000 O    4734 GOL     0.0000 ****
12407 OIL   -62.708000  -54.334000  -63.136000 O    4735 GOL     0.0000 ****
12408 OIL   -34.824000  -80.478000   18.055000 O    4736 GOL     0.0000 ****
12409 OIL   -15.212000  -37.557000  -57.648000 O    4737 GOL     0.0000 ****
12410 OIL   -92.278000  -26.659000   19.975000 O    4738 GOL     0.0000 ****
12411 OIL   -30.937000   79.100000   65.224000 O    4739 GOL     0.0000 ****
12412 OIL   -69.401000   -4.224000   57.176000 O    4740 GOL     0.0000 ****
12413 OIL   -71.600000    2.432000   17.094000 O    4741 GOL     0.0000 ****
12414 OIL   -79.348000   58.932000    8.255000 O    4742 GOL     0.0000 ****
12415 OIL   -32.446000  -21.128000   68.169000 O    4743 GOL     0.0000 ****
12416 OIL   -60.730000   -8.470000   37.788000 O    4744 GOL     0.0000 ****
12417 OIL    72.400000   -3.809000   74.858000 O    4745 GOL     0.0000 ****
12418 OIL   -66.173000  -39.458000   11.237000 O    4746 GOL     0.0000 ****
12419 OIL   -57.704000   85.688000   21.638000 O    4747 GOL     0.0000 ****
12420 OIL   -10.410000  -53.268000   77.541000 O    4748 GOL     0.0000 ****
12421 OIL    19.652000  -98.907000   30.818000 O    4749 GOL     0.0000 ****
12422 OIL   -50.014000   11.894000   60.374000 O    4750 GOL     0.0000 ****
12423 OIL    65.265000  -80.089000   26.413000 O    4751 GOL     0.0000 ****
12424 OIL   -27.936000  -81.944000   44.315000 O    4752 GOL     0.0000 ****
12425 OIL   -21.912000  -66.499000  -58.266000 O    4753 GOL     0.0000 ****
12426 OIL    43.972000   32.291000   85.160000 O    4754 GOL     0.0000 ****
12427 OIL   -45.387000   -5.748000  -81.449000 O    4755 GOL     0.0000 ****
12428 OIL    49.384000   33.970000  -64.229000 O    4756 GOL     0.0000 ****
12429 OIL    54.696000   25.345000   66.095000 O    4757 GOL     0.0000 ****
12430 OIL   102.582000   -0.997000  -28.218000 O    4758 GOL     0.0000 ****
12431 OIL   105.118000  -10.197000   14.301000 O    4759 GOL     0.0000 ****
12432 OIL   -38.916000   36.572000   65.961000 O    4760 GOL     0.0000 ****
12433 OIL     6.892000   11.173000  -98.057000 O    4761 GOL     0.0000 ****
12434 OIL   -96.236000   -9.173000   -5.673000 O    4762 GOL     0.0000 ****
12435 OIL    59.476000   44.278000   65.295000 O    4763 GOL     0.0000 ****
12436 OIL    31.590000   74.215000  -13.073000 O    4764 GOL     0.0000 ****
12437 OIL   -21.330000  -15.319000   54.704000 O    4765 GOL     0.0000 ****
12438 OIL    17.086000  -49.698000  -81.973000 O    4766 GOL     0.0000 ****
12439 OIL    37.795000   10.665000  -97.867000 O    4767 GOL     0.0000 ****
12440 OIL   -71.475000  -49.527000  -38.440000 O    4768 GOL     0.0000 ****
12441 OIL    20.472000  -52.140000  -91.221000 O    4769 GOL     0.0000 ****
12442 OIL    17.373000   77.286000  -46.651000 O    4770 GOL     0.0000 ****
12443 OIL   -74.609000   18.112000   61.457000 O    4771 GOL     0.0000 ****
12444 OIL   -70.601000  -17.087000  -70.282000 O    4772 GOL     0.0000 ****
12445 OIL    -7.424000   90.094000   55.597000 O    4773 GOL     0.0000 ****
12446 OIL   -86.118000  -37.917000  -31.692000 O    4774 GOL     0.0000 ****
12447 OIL   -73.111000   29.326000    8.655000 O    4775 GOL     0.0000 ****
12448 OIL   -25.951000   51.971000  -74.330000 O    4776 GOL     0.0000 ****
12449 OIL    -7.063000  -81.040000  -15.109000 O    4777 GOL     0.0000 ****
12450 OIL   -54.169000   31.838000   29.360000 O    4778 GOL     0.0000 ****
12451 OIL     5.434000   82.264000  -62.275000 O    4779 GOL     0.0000 ****
12452 OIL   -23.750000   -5.468000  -78.521000 O    4780 GOL     0.0000 ****
12453 OIL    36.296000  -23.351000  -86.676000 O    4781 GOL     0.0000 ****
12454 OIL    76.400000  -23.659000  -54.419000 O    4782 GOL     0.0000 ****
12455 OIL   -70.575000   59.945000   -6.478000 O    4783 GOL     0.0000 ****
12456 OIL    23.574000  -49.112000   92.533000 O    4784 GOL     0.0000 ****
12457 OIL   -71.530000   53.989000  -51.890000 O    4785 GOL     0.0000 ****
12458 OIL    62.439000  -82.389000   23.442000 O    4786 GOL     0.0000 ****
12459 OIL   -68.422000    5.961000   50.535000 O    4787 GOL     0.0000 ****
12460 OIL    42.626000   33.919000   86.417000 O    4788 GOL     0.0000 ****
12461 OIL   -14.075000  -84.177000   64.134000 O    4789 GOL     0.0000 ****
12462 OIL    78.708000   45.471000  -39.423000 O    4790 GOL     0.0000 ****
12463 OIL   -82.006000  -10.369000   -0.423000 O    4791 GOL     0.0000 ****
12464 OIL   -40.189000  -76.798000   53.074000 O    4792 GOL     0.0000 ****
12465 OIL   -16.502000   53.423000   32.253000 O    4793 GOL     0.0000 ****
12466 OIL   -52.018000    9.934000   43.341000 O    4794 GOL     0.0000 ****
12467 OIL    68.732000    2.837000  -75.908000 O    4795 GOL     0.0000 ****
12468 OIL   -64.372000   -0.811000   31.718000 O    4796 GOL     0.0000 ****
12469 OIL    72.655000   46.330000   53.940000 O    4797 GOL     0.0000 ****
12470 OIL   -28.072000  -37.202000  -52.212000 O    4798 GOL     0.0000 ****
12471 OIL   -99.634000    6.277000    3.090000 O    4799 GOL     0.0000 ****
12472 OIL    11.922000   14.420000  -91.423000 O    4800 GOL     0.0000 ****
12473 OIL    45.913000   19.939000  -68.573000 O    4801 GOL     0.0000 ****
12474 OIL   -29.758000  -62.849000   23.077000 O    4802 GOL     0.0000 ****
12475 OIL   -49.584000  -65.636000   12.537000 O    4803 GOL     0.0000 ****
12476 OIL   -69.586000  -64.179000   18.630000 O    4804 GOL     0.0000 ****
12477 OIL    88.923000   39.476000  -43.038000 O    4805 GOL     0.0000 ****
12478 OIL   -61.630000   31.896000  -40.698000 O    4806 GOL     0.0000 ****
12479 OIL   -45.765000   52.324000   31.901000 O    4807 GOL     0.0000 ****
12480 OIL   -71.394000   28.895000   71.943000 O    4808 GOL     0.0000 ****
12481 OIL   -80.693000    4.798000   23.272000 O    4809 GOL     0.0000 ****
12482 OIL   -44.906000  -63.076000  -33.529000 O    4810 GOL     0.0000 ****
12483 OIL    73.587000  -64.248000  -40.588000 O    4811 GOL     0.0000 ****
12484 OIL     1.855000   65.099000  -78.492000 O    4812 GOL     0.0000 ****
12485 OIL   -89.818000  -45.346000  -36.938000 O    4813 GOL     0.0000 ****
12486 OIL   -83.558000   22.602000  -35.420000 O    4814 GOL     0.0000 ****
12487 OIL   -21.235000  -21.523000   62.114000 O    4815 GOL     0.0000 ****
12488 OIL    12.091000   40.041000  -93.555000 O    4816 GOL     0.0000 ****
12489 OIL   -46.809000  -68.908000    4.566000 O    4817 GOL     0.0000 ****
12490 OIL    32.360000  -60.384000   40.672000 O    4818 GOL     0.0000 ****
12491 OIL   -12.432000  103.160000   -6.623000 O    4819 GOL     0.0000 ****
12492 OIL     6.289000  -90.747000   -5.372000 O    4820 GOL     0.0000 ****
12493 OIL   -52.838000  -65.073000   19.190000 O    4821 GOL     0.0000 ****
12494 OIL   -13.938000   17.594000   81.767000 O    4822 GOL     0.0000 ****
12495 OIL   -11.667000   87.725000  -34.165000 O    4823 GOL     0.0000 ****
12496 OIL   -39.036000  -95.412000   -6.354000 O    4824 GOL     0.0000 ****
12497 OIL    17.845000  -92.464000  -33.523000 O    4825 GOL     0.0000 ****
12498 OIL   -78.961000  -15.203000  -27.361000 O    4826 GOL     0.0000 ****
12499 OIL    12.388000  -73.131000    8.604000 O    4827 GOL     0.0000 ****
12500 OIL    60.766000  -83.848000   17.075000 O    4828 GOL     0.0000 ****
12501 OIL    61.929000  -29.705000  -57.806000 O    4829 GOL     0.0000 ****
12502 OIL   -90.712000  -15.107000   19.854000 O    4830 GOL     0.0000 ****
12503 OIL   -42.852000   17.845000   96.121000 O    4831 GOL     0.0000 ****
12504 OIL   -68.468000   54.180000   48.757000 O    4832 GOL     0.0000 ****
12505 OIL    81.668000   12.077000   46.596000 O    4833 GOL     0.0000 ****
12506 OIL   -62.488000   24.324000  -39.662000 O    4834 GOL     0.0000 ****
12507 OIL    16.878000  -92.703000   20.175000 O    4835 GOL     0.0000 ****
12508 OIL    19.548000  -71.820000   71.635000 O    4836 GOL     0.0000 ****
12509 OIL    69.413000   69.999000  -41.431000 O    4837 GOL     0.0000 ****
12510 OIL   -24.149000   98.019000   -0.407000 O    4838 GOL     0.0000 ****
12511 OIL   -65.020000   55.420000   55.742000 O    4839 GOL     0.0000 ****
12512 OIL   -17.451000 -104.771000  -12.764000 O    4840 GOL     0.0000 ****
12513 OIL   -44.432000  -55.360000   67.908000 O    4841 GOL     0.0000 ****
12514 OIL    39.474000   35.792000  -87.816000 O    4842 GOL     0.0000 ****
12515 OIL    66.286000  -67.095000  -50.224000 O    4843 GOL     0.0000 ****
12516 OIL   -34.085000  -74.886000    5.804000 O    4844 GOL     0.0000 ****
12517 OIL    10.773000  -81.464000  -60.746000 O    4845 GOL     0.0000 ****
12518 OIL   -73.088000  -22.268000  -41.453000 O    4846 GOL     0.0000 ****
12519 OIL    -1.056000  101.521000   -9.074000 O    4847 GOL     0.0000 ****
12520 OIL    46.028000   74.487000   -7.313000 O    4848 GOL     0.0000 ****
12521 OIL    24.746000   25.378000  -93.391000 O    4849 GOL     0.0000 ****
12522 OIL   -29.936000   49.930000   16.861000 O    4850 GOL     0.0000 ****
12523 OIL   -78.780000  -72.197000    0.460000 O    4851 GOL     0.0000 ****
12524 OIL   -16.856000   68.751000  -41.698000 O    4852 GOL     0.0000 ****
12525 OIL    -9.777000   72.187000  -61.733000 O    4853 GOL     0.0000 ****
12526 OIL     2.734000    9.675000   73.507000 O    4854 GOL     0.0000 ****
12527 OIL   -62.295000   79.211000   28.530000 O    4855 GOL     0.0000 ****
12528 OIL   -80.937000   -1.682000   22.460000 O    4856 GOL     0.0000 ****
12529 OIL   -38.991000   72.310000   59.753000 O    4857 GOL     0.0000 ****
12530 OIL   -71.676000  -13.335000  -72.393000 O    4858 GOL     0.0000 ****
12531 OIL   -28.679000   12.160000   77.812000 O    4859 GOL     0.0000 ****
12532 OIL    -8.077000  -82.848000   -7.791000 O    4860 GOL     0.0000 ****
12533 OIL    25.770000   88.182000   17.251000 O    4861 GOL     0.0000 ****
12534 OIL   -20.551000  -27.771000  -53.914000 O    4862 GOL     0.0000 ****
12535 OIL   -71.278000   -3.008000    9.482000 O    4863 GOL     0.0000 ****
12536 OIL   -86.355000  -43.229000  -27.848000 O    4864 GOL     0.0000 ****
12537 OIL   -73.240000  -41.576000  -17.960000 O    4865 GOL     0.0000 ****
12538 OIL   -42.714000  -11.587000   63.643000 O    4866 GOL     0.0000 ****
12539 OIL   -56.017000   60.836000  -35.535000 O    4867 GOL     0.0000 ****
12540 OIL   -78.233000   19.951000  -19.114000 O    4868 GOL     0.0000 ****
12541 OIL   -58.067000   50.214000  -62.609000 O    4869 GOL     0.0000 ****
12542 OIL   -31.964000  -79.514000  -19.292000 O    4870 GOL     0.0000 ****
12543 OIL   -44.439000  -13.068000  -58.866000 O    4871 GOL     0.0000 ****
12544 OIL    -2.195000   15.556000 -104.963000 O    4872 GOL     0.0000 ****
12545 OIL    83.168000   40.840000  -47.532000 O    4873 GOL     0.0000 ****
12546 OIL   -10.497000   89.048000   54.031000 O    4874 GOL     0.0000 ****
12547 OIL     9.089000  -74.886000   42.780000 O    4875 GOL     0.0000 ****
12548 OIL   -32.298000   62.895000  -13.420000 O    4876 GOL     0.0000 ****
12549 OIL   -82.574000   33.631000   58.626000 O    4877 GOL     0.0000 ****
12550 OIL    -8.659000   -1.014000   96.641000 O    4878 GOL     0.0000 ****
12551 OIL    54.461000  -42.196000  -54.403000 O    4879 GOL     0.0000 ****
12552 OIL   -37.892000   -3.923000  -75.479000 O    4880 GOL     0.0000 ****
12553 OIL    16.692000   79.195000  -35.336000 O    4881 GOL     0.0000 ****
12554 OIL    53.691000  -32.528000   73.690000 O    4882 GOL     0.0000 ****
12555 OIL   -76.035000  -50.198000   22.147000 O    4883 GOL     0.0000 ****
12556 OIL    12.619000  -58.302000   56.925000 O    4884 GOL     0.0000 ****
12557 OIL   -10.117000   93.727000  -12.843000 O    4885 GOL     0.0000 ****
12558 OIL     1.603000  -83.494000  -53.363000 O    4886 GOL     0.0000 ****
12559 OIL   -37.519000   73.220000  -32.798000 O    4887 GOL     0.0000 ****
12560 OIL    98.403000   14.568000  -26.326000 O    4888 GOL     0.0000 ****
12561 OIL   -37.924000  -49.892000    5.524000 O    4889 GOL     0.0000 ****
12562 OIL   -66.491000  -73.795000   32.581000 O    4890 GOL     0.0000 ****
12563 OIL     0.184000   84.062000    0.626000 O    4891 GOL     0.0000 ****
12564 OIL   -48.501000  -59.807000   37.848000 O    4892 GOL     0.0000 ****
12565 OIL   -10.736000  -31.559000   62.044000 O    4893 GOL     0.0000 ****
12566 OIL    86.997000  -50.904000   -6.231000 O    4894 GOL     0.0000 ****
12567 OIL   -60.759000  -15.942000   10.494000 O    4895 GOL     0.0000 ****
12568 OIL    85.695000  -58.408000    2.791000 O    4896 GOL     0.0000 ****
12569 OIL   -92.683000  -16.865000    7.827000 O    4897 GOL     0.0000 ****
12570 OIL   -83.307000   51.196000   -4.371000 O    4898 GOL     0.0000 ****
12571 OIL   -81.899000   30.803000    2.244000 O    4899 GOL     0.0000 ****
12572 OIL    -3.511000   11.802000  -72.189000 O    4900 GOL     0.0000 ****
12573 OIL   -41.704000  -12.654000  -53.311000 O    4901 GOL     0.0000 ****
12574 OIL    64.899000   38.574000   56.385000 O    4902 GOL     0.0000 ****
12575 OIL  -103.606000    9.648000  -20.236000 O    4903 GOL     0.0000 ****
12576 OIL    35.601000  -47.039000   78.469000 O    4904 GOL     0.0000 ****
12577 OIL   -34.509000   99.129000   -5.930000 O    4905 GOL     0.0000 ****
12578 OIL    38.021000   77.159000   10.423000 O    4906 GOL     0.0000 ****
12579 OIL    27.542000  -84.041000   44.148000 O    4907 GOL     0.0000 ****
12580 OIL    16.230000  -84.390000   -4.625000 O    4908 GOL     0.0000 ****
12581 OIL   -48.364000   -3.367000  -14.851000 O    4909 GOL     0.0000 ****
12582 OIL   -72.066000    6.832000  -56.857000 O    4910 GOL     0.0000 ****
12583 OIL    42.792000   19.769000  -90.409000 O    4911 GOL     0.0000 ****
12584 OIL   -66.620000   40.709000  -10.580000 O    4912 GOL     0.0000 ****
12585 OIL   -60.530000  -23.603000   46.114000 O    4913 GOL     0.0000 ****
12586 OIL   -47.206000  -32.397000    7.639000 O    4914 GOL     0.0000 ****
12587 OIL   -37.957000   84.842000   22.518000 O    4915 GOL     0.0000 ****
12588 OIL   -32.641000  -81.631000    7.960000 O    4916 GOL     0.0000 ****
12589 OIL   -45.023000  -14.380000   25.008000 O    4917 GOL     0.0000 ****
12590 OIL   -34.336000   72.307000   25.104000 O    4918 GOL     0.0000 ****
12591 OIL    84.777000  -58.020000  -21.891000 O    4919 GOL     0.0000 ****
12592 OIL   -57.938000  -32.146000    8.080000 O    4920 GOL     0.0000 ****
12593 OIL    20.895000  -88.213000  -35.975000 O    4921 GOL     0.0000 ****
12594 OIL   -44.271000  -28.199000  -40.758000 O    4922 GOL     0.0000 ****
12595 OIL     0.474000   59.419000   69.415000 O    4923 GOL     0.0000 ****
12596 OIL   -58.119000  -75.764000   23.181000 O    4924 GOL     0.0000 ****
12597 OIL   -22.549000   29.344000  -55.186000 O    4925 GOL     0.0000 ****
12598 OIL    26.580000  -67.813000   57.737000 O    4926 GOL     0.0000 ****
12599 OIL     8.305000   83.306000   13.883000 O    4927 GOL     0.0000 ****
12600 OIL    69.589000  -59.451000   -4.753000 O    4928 GOL     0.0000 ****
12601 OIL     7.659000  -38.263000  -70.852000 O    4929 GOL     0.0000 ****
12602 OIL     2.223000  -68.143000  -66.265000 O    4930 GOL     0.0000 ****
12603 OIL    34.711000   82.027000    9.276000 O    4931 GOL     0.0000 ****
12604 OIL    -1.839000   34.391000   90.929000 O    4932 GOL     0.0000 ****
12605 OIL   -90.167000   11.860000  -21.270000 O    4933 GOL     0.0000 ****
12606 OIL    73.026000   21.008000  -64.590000 O    4934 GOL     0.0000 ****
12607 OIL    10.394000   18.981000   93.137000 O    4935 GOL     0.0000 ****
12608 OIL    25.963000   87.137000  -47.663000 O    4936 GOL     0.0000 ****
12609 OIL    16.620000   99.938000   34.850000 O    4937 GOL     0.0000 ****
12610 OIL    41.781000   -0.320000  -98.256000 O    4938 GOL     0.0000 ****
12611 OIL    43.505000   -0.448000   82.059000 O    4939 GOL     0.0000 ****
12612 OIL   -19.124000   -7.581000  -98.670000 O    4940 GOL     0.0000 ****
12613 OIL    43.366000   71.445000  -35.223000 O    4941 GOL     0.0000 ****
12614 OIL   -41.013000   47.026000  -20.828000 O    4942 GOL     0.0000 ****
12615 OIL   -68.260000  -18.095000  -65.971000 O    4943 GOL     0.0000 ****
12616 OIL    13.563000   93.481000  -11.025000 O    4944 GOL     0.0000 ****
12617 OIL    30.902000   74.924000   -9.425000 O    4945 GOL     0.0000 ****
12618 OIL   -28.823000  -56.820000   17.793000 O    4946 GOL     0.0000 ****
12619 OIL    36.453000  -53.038000  -66.407000 O    4947 GOL     0.0000 ****
12620 OIL    86.857000   43.373000   34.528000 O    4948 GOL     0.0000 ****
12621 OIL     5.313000  -37.854000   73.102000 O    4949 GOL     0.0000 ****
12622 OIL   -23.521000  -78.250000   65.051000 O    4950 GOL     0.0000 ****
12623 OIL   -24.678000   44.660000  -81.745000 O    4951 GOL     0.0000 ****
12624 OIL     0.027000  -68.238000   32.437000 O    4952 GOL     0.0000 ****
12625 OIL   -74.628000  -54.890000  -38.943000 O    4953 GOL     0.0000 ****
12626 OIL     4.611000   -5.694000   89.237000 O    4954 GOL     0.0000 ****
12627 OIL    18.116000   95.405000  -22.406000 O    4955 GOL     0.0000 ****
12628 OIL    48.161000    9.870000  -88.198000 O    4956 GOL     0.0000 ****
12629 OIL   -23.743000  -98.734000   30.649000 O    4957 GOL     0.0000 ****
12630 OIL    91.878000    7.418000   38.193000 O    4958 GOL     0.0000 ****
12631 OIL    11.214000  -86.782000   18.755000 O    4959 GOL     0.0000 ****
12632 OIL   -18.404000  -36.520000  -92.251000 O    4960 GOL     0.0000 ****
12633 OIL    74.490000   -0.708000   59.501000 O    4961 GOL     0.0000 ****
12634 OIL   -67.798000   24.956000  -17.077000 O    4962 GOL     0.0000 ****
12635 OIL   -88.019000    2.098000  -45.274000 O    4963 GOL     0.0000 ****
12636 OIL   -71.223000   19.108000  -13.425000 O    4964 GOL     0.0000 ****
12637 OIL    44.304000  -33.663000  -74.599000 O    4965 GOL     0.0000 ****
12638 OIL    37.670000   18.013000  -83.397000 O    4966 GOL     0.0000 ****
12639 OIL   -58.264000   15.189000   37.855000 O    4967 GOL     0.0000 ****
12640 OIL    27.753000  -63.350000  -81.137000 O    4968 GOL     0.0000 ****
12641 OIL     1.676000  -73.620000  -24.029000 O    4969 GOL     0.0000 ****
12642 OIL   -93.788000   49.408000  -11.991000 O    4970 GOL     0.0000 ****
12643 OIL    28.332000   52.497000  -81.573000 O    4971 GOL     0.0000 ****
12644 OIL   -27.891000  -52.080000   61.810000 O    4972 GOL     0.0000 ****
12645 OIL    56.797000   42.423000  -59.957000 O    4973 GOL     0.0000 ****
12646 OIL   -68.142000  -50.816000  -51.228000 O    4974 GOL     0.0000 ****
12647 OIL   -64.373000  -41.867000  -17.639000 O    4975 GOL     0.0000 ****
12648 OIL   -91.029000   31.858000  -13.687000 O    4976 GOL     0.0000 ****
12649 OIL    54.260000   17.565000  -90.307000 O    4977 GOL     0.0000 ****
12650 OIL    77.001000    8.257000   61.091000 O    4978 GOL     0.0000 ****
12651 OIL    30.676000  -86.293000   53.432000 O    4979 GOL     0.0000 ****
12652 OIL   -21.448000  -93.200000  -43.772000 O    4980 GOL     0.0000 ****
12653 OIL    58.483000   -9.380000  -66.101000 O    4981 GOL     0.0000 ****
12654 OIL   -69.392000  -36.242000  -15.504000 O    4982 GOL     0.0000 ****
12655 OIL     4.135000  -12.464000   75.347000 O    4983 GOL     0.0000 ****
12656 OIL   -22.462000   59.729000   55.498000 O    4984 GOL     0.0000 ****
12657 OIL     7.737000 -101.622000  -16.703000 O    4985 GOL     0.0000 ****
12658 OIL    48.945000   87.072000   32.331000 O    4986 GOL     0.0000 ****
12659 OIL    61.063000  -60.682000   58.875000 O    4987 GOL     0.0000 ****
12660 OIL     7.926000   46.515000   91.822000 O    4988 GOL     0.0000 ****
12661 OIL    73.434000   23.560000  -58.909000 O    4989 GOL     0.0000 ****
12662 OIL    65.826000   58.571000  -33.271000 O    4990 GOL     0.0000 ****
12663 OIL    -7.656000   42.046000   86.576000 O    4991 GOL     0.0000 ****
12664 OIL   -15.353000   38.693000   84.582000 O    4992 GOL     0.0000 ****
12665 OIL     1.856000  -95.633000   16.186000 O    4993 GOL     0.0000 ****
12666 OIL   -47.577000  -36.702000   22.767000 O    4994 GOL     0.0000 ****
12667 OIL   -57.071000   35.672000   74.634000 O    4995 GOL     0.0000 ****
12668 OIL    13.288000   20.543000   69.417000 O    4996 GOL     0.0000 ****
12669 OIL    54.201000   19.693000   85.315000 O    4997 GOL     0.0000 ****
12670 OIL   -91.601000    7.165000  -38.869000 O    4998 GOL     0.0000 ****
12671 OIL    18.542000   24.847000  -81.556000 O    4999 GOL     0.0000 ****
12672 OIL    37.676000   39.698000  -90.426000 O    5000 GOL     0.0000 ****
12673 OIL    44.420000  -66.017000   59.582000 O    5001 GOL     0.0000 ****
12674 OIL    15.873000  -54.132000   65.285000 O    5002 GOL     0.0000 ****
12675 OIL    28.425000  -82.417000  -11.430000 O    5003 GOL     0.0000 ****
12676 OIL    52.723000   32.329000   79.743000 O    5004 GOL     0.0000 ****
12677 OIL   -96.562000   -4.183000    8.750000 O    5005 GOL     0.0000 ****
12678 OIL   -83.065000   61.635000  -20.539000 O    5006 GOL     0.0000 ****
12679 OIL    40.004000  -50.972000  -73.868000 O    5007 GOL     0.0000 ****
12680 OIL    64.168000   38.022000   62.392000 O    5008 GOL     0.0000 ****
12681 OIL   -43.625000  -81.472000    1.813000 O    5009 GOL     0.0000 ****
12682 OIL   -90.046000  -29.413000   30.394000 O    5010 GOL     0.0000 ****
12683 OIL   -69.463000  -31.627000   61.989000 O    5011 GOL     0.0000 ****
12684 OIL    10.296000   -2.366000 -103.139000 O    5012 GOL     0.0000 ****
12685 OIL   -96.615000   26.219000    0.455000 O    5013 GOL     0.0000 ****
12686 OIL   -75.374000  -53.680000    2.570000 O    5014 GOL     0.0000 ****
12687 OIL    15.019000  -71.114000  -72.915000 O    5015 GOL     0.0000 ****
12688 OIL   -50.233000   59.694000  -36.062000 O    5016 GOL     0.0000 ****
12689 OIL   -26.100000  -65.996000   17.803000 O    5017 GOL     0.0000 ****
12690 OIL    45.738000  -91.016000  -17.577000 O    5018 GOL     0.0000 ****
12691 OIL   -57.694000    7.199000   11.948000 O    5019 GOL     0.0000 ****
12692 OIL   -43.602000  -31.447000   60.569000 O    5020 GOL     0.0000 ****
12693 OIL    -0.838000   62.756000  -81.498000 O    5021 GOL     0.0000 ****
12694 OIL   -40.660000   11.091000   49.944000 O    5022 GOL     0.0000 ****
12695 OIL   105.737000   16.708000   -3.582000 O    5023 GOL     0.0000 ****
12696 OIL   -28.302000   57.257000   -9.804000 O    5024 GOL     0.0000 ****
12697 OIL    69.121000   65.037000  -47.532000 O    5025 GOL     0.0000 ****
12698 OIL   -18.904000  -92.985000  -44.744000 O    5026 GOL     0.0000 ****
12699 OIL    24.545000  -69.256000   21.845000 O    5027 GOL     0.0000 ****
12700 OIL     3.523000   65.607000  -41.519000 O    5028 GOL     0.0000 ****
12701 OIL    -6.766000   85.211000  -58.115000 O    5029 GOL     0.0000 ****
12702 OIL   -89.023000  -36.857000  -20.201000 O    5030 GOL     0.0000 ****
12703 OIL   -22.692000   68.303000   39.452000 O    5031 GOL     0.0000 ****
12704 OIL    66.812000    8.015000   61.014000 O    5032 GOL     0.0000 ****
12705 OIL     0.920000   24.514000   89.165000 O    5033 GOL     0.0000 ****
12706 OIL   -44.858000   53.897000  -14.859000 O    5034 GOL     0.0000 ****
12707 OIL   -29.978000   43.049000  -26.665000 O    5035 GOL     0.0000 ****
12708 OIL    -8.503000   78.990000   -8.992000 O    5036 GOL     0.0000 ****
12709 OIL   -76.042000   25.497000   27.573000 O    5037 GOL     0.0000 ****
12710 OIL    57.856000   66.912000   22.324000 O    5038 GOL     0.0000 ****
12711 OIL   -54.938000    5.058000  -28.096000 O    5039 GOL     0.0000 ****
12712 OIL   -27.250000  -67.246000  -71.689000 O    5040 GOL     0.0000 ****
12713 OIL    46.004000   65.144000   35.224000 O    5041 GOL     0.0000 ****
12714 OIL   -75.151000  -50.896000   52.474000 O    5042 GOL     0.0000 ****
12715 OIL   -19.842000   23.569000   57.698000 O    5043 GOL     0.0000 ****
12716 OIL   -47.948000  -93.996000   12.501000 O    5044 GOL     0.0000 ****
12717 OIL   -56.743000  -14.963000  -25.301000 O    5045 GOL     0.0000 ****
12718 OIL   -22.136000   16.887000   81.930000 O    5046 GOL     0.0000 ****
12719 OIL   -18.989000   79.963000    7.031000 O    5047 GOL     0.0000 ****
12720 OIL   -49.243000  -61.882000    9.430000 O    5048 GOL     0.0000 ****
12721 OIL    48.881000  -66.941000   29.797000 O    5049 GOL     0.0000 ****
12722 OIL   -82.667000   16.867000   19.140000 O    5050 GOL     0.0000 ****
12723 OIL   -35.651000  -40.469000  -34.958000 O    5051 GOL     0.0000 ****
12724 OIL   -43.527000  -30.751000  -75.090000 O    5052 GOL     0.0000 ****
12725 OIL    13.109000   91.448000  -33.095000 O    5053 GOL     0.0000 ****
12726 OIL   -70.830000  -48.182000   58.830000 O    5054 GOL     0.0000 ****
12727 OIL     4.046000   19.346000  -76.890000 O    5055 GOL     0.0000 ****
12728 OIL   -67.530000   57.918000  -25.511000 O    5056 GOL     0.0000 ****
12729 OIL   -53.475000  -91.213000   15.167000 O    5057 GOL     0.0000 ****
12730 OIL   100.352000    6.704000   -3.367000 O    5058 GOL     0.0000 ****
12731 OIL   -86.876000  -60.681000    6.988000 O    5059 GOL     0.0000 ****
12732 OIL    33.872000   56.109000  -82.648000 O    5060 GOL     0.0000 ****
12733 OIL   -28.352000   53.442000  -86.180000 O    5061 GOL     0.0000 ****
12734 OIL   -96.364000  -14.936000   18.702000 O    5062 GOL     0.0000 ****
12735 OIL   -55.285000  -64.452000    0.507000 O    5063 GOL     0.0000 ****
12736 OIL   -35.884000   65.265000   52.411000 O    5064 GOL     0.0000 ****
12737 OIL    15.174000  -84.915000  -17.720000 O    5065 GOL     0.0000 ****
12738 OIL    15.718000  -75.366000    4.463000 O    5066 GOL     0.0000 ****
12739 OIL    44.629000  -73.263000  -51.472000 O    5067 GOL     0.0000 ****
12740 OIL    50.287000   58.079000   42.663000 O    5068 GOL     0.0000 ****
12741 OIL   -15.376000   77.581000    1.340000 O    5069 GOL     0.0000 ****
12742 OIL   -95.838000   40.390000    1.838000 O    5070 GOL     0.0000 ****
12743 OIL   -25.160000   26.819000  -73.985000 O    5071 GOL     0.0000 ****
12744 OIL    66.194000   69.154000   13.759000 O    5072 GOL     0.0000 ****
12745 OIL   -11.890000  -37.935000   76.807000 O    5073 GOL     0.0000 ****
12746 OIL    47.358000   80.673000  -16.083000 O    5074 GOL     0.0000 ****
12747 OIL    68.987000  -54.770000   26.397000 O    5075 GOL     0.0000 ****
12748 OIL   -31.250000   73.407000   33.437000 O    5076 GOL     0.0000 ****
12749 OIL   -30.801000   47.151000  -28.574000 O    5077 GOL     0.0000 ****
12750 OIL    11.281000  -47.373000   56.272000 O    5078 GOL     0.0000 ****
12751 OIL    -4.703000   49.964000  -62.672000 O    5079 GOL     0.0000 ****
12752 OIL   -50.967000  -78.155000    0.939000 O    5080 GOL     0.0000 ****
12753 OIL     7.136000  -95.859000    4.824000 O    5081 GOL     0.0000 ****
12754 OIL   -26.508000   22.070000  -73.323000 O    5082 GOL     0.0000 ****
12755 OIL   -32.680000  -56.154000    1.052000 O    5083 GOL     0.0000 ****
12756 OIL    11.343000   80.416000   -1.658000 O    5084 GOL     0.0000 ****
12757 OIL   -28.076000   92.870000   -4.300000 O    5085 GOL     0.0000 ****
12758 OIL    95.679000    8.078000   45.690000 O    5086 GOL     0.0000 ****
12759 OIL   -46.424000  -20.757000  -17.442000 O    5087 GOL     0.0000 ****
12760 OIL    19.562000  -86.873000  -10.006000 O    5088 GOL     0.0000 ****
12761 OIL   -65.550000   -0.057000   27.720000 O    5089 GOL     0.0000 ****
12762 OIL   -27.976000   69.711000  -18.095000 O    5090 GOL     0.0000 ****
12763 OIL   -76.962000  -24.884000   56.906000 O    5091 GOL     0.0000 ****
12764 OIL    -1.746000   93.386000   43.256000 O    5092 GOL     0.0000 ****
12765 OIL   -37.622000  -54.478000   -0.570000 O    5093 GOL     0.0000 ****
12766 OIL    19.838000   65.270000  -60.401000 O    5094 GOL     0.0000 ****
12767 OIL   -90.874000   -8.746000   12.725000 O    5095 GOL     0.0000 ****
12768 OIL   -34.415000    5.486000   77.217000 O    5096 GOL     0.0000 ****
12769 OIL    -7.437000   43.279000   73.978000 O    5097 GOL     0.0000 ****
12770 OIL    54.996000   57.344000  -62.482000 O    5098 GOL     0.0000 ****
12771 OIL   -31.678000   67.297000  -37.430000 O    5099 GOL     0.0000 ****
12772 OIL   -88.833000   55.609000   16.410000 O    5100 GOL     0.0000 ****
12773 OIL   -14.137000   82.477000   21.698000 O    5101 GOL     0.0000 ****
12774 OIL   -46.214000   -6.133000   68.435000 O    5102 GOL     0.0000 ****
12775 OIL   -82.409000   38.021000   31.441000 O    5103 GOL     0.0000 ****
12776 OIL    18.210000  -84.509000   40.882000 O    5104 GOL     0.0000 ****
12777 OIL   -31.590000   52.651000  -41.803000 O    5105 GOL     0.0000 ****
12778 OIL    21.320000   67.561000  -41.429000 O    5106 GOL     0.0000 ****
12779 OIL   -27.062000   56.996000  -56.963000 O    5107 GOL     0.0000 ****
12780 OIL    19.215000   72.298000  -74.455000 O    5108 GOL     0.0000 ****
12781 OIL   -10.591000  -14.045000  -79.899000 O    5109 GOL     0.0000 ****
12782 OIL   -19.000000  -73.448000   35.418000 O    5110 GOL     0.0000 ****
12783 OIL    55.601000   -0.935000  -91.738000 O    5111 GOL     0.0000 ****
12784 OIL    33.231000   42.569000  -84.069000 O    5112 GOL     0.0000 ****
12785 OIL    46.146000  -51.186000   56.215000 O    5113 GOL     0.0000 ****
12786 OIL    59.467000   75.263000   -9.186000 O    5114 GOL     0.0000 ****
12787 OIL    63.047000  -20.134000   75.060000 O    5115 GOL     0.0000 ****
12788 OIL    54.154000   85.397000   16.051000 O    5116 GOL     0.0000 ****
12789 OIL   -36.361000    2.214000  100.039000 O    5117 GOL     0.0000 ****
12790 OIL    12.482000  -79.795000  -58.108000 O    5118 GOL     0.0000 ****
12791 OIL   -32.264000  -58.354000   38.455000 O    5119 GOL     0.0000 ****
12792 OIL     6.196000    9.709000  102.315000 O    5120 GOL     0.0000 ****
12793 OIL     0.493000   23.962000  -79.277000 O    5121 GOL     0.0000 ****
12794 OIL    19.467000   49.224000   56.576000 O    5122 GOL     0.0000 ****
12795 OIL   -37.497000  -56.658000   45.107000 O    5123 GOL     0.0000 ****
12796 OIL   -15.820000   18.155000   89.002000 O    5124 GOL     0.0000 ****
12797 OIL   -80.613000   16.312000   33.825000 O    5125 GOL     0.0000 ****
12798 OIL   -21.689000  -13.036000  -74.452000 O    5126 GOL     0.0000 ****
12799 OIL   -25.207000   32.760000   39.192000 O    5127 GOL     0.0000 ****
12800 OIL   -57.236000  -35.927000   64.396000 O    5128 GOL     0.0000 ****
12801 OIL   -55.672000    9.468000  -90.487000 O    5129 GOL     0.0000 ****
12802 OIL   -74.489000   34.298000   22.083000 O    5130 GOL     0.0000 ****
12803 OIL    -2.884000    4.131000  -74.099000 O    5131 GOL     0.0000 ****
12804 OIL   -19.898000    6.333000   82.120000 O    5132 GOL     0.0000 ****
12805 OIL   -78.418000  -34.689000  -30.378000 O    5133 GOL     0.0000 ****
12806 OIL    50.121000   16.814000  -91.498000 O    5134 GOL     0.0000 ****
12807 OIL  -101.943000   -6.809000   -4.983000 O    5135 GOL     0.0000 ****
12808 OIL   -30.899000  -10.458000   48.514000 O    5136 GOL     0.0000 ****
12809 OIL     7.213000  -29.275000  -76.651000 O    5137 GOL     0.0000 ****
12810 OIL    58.976000  -16.073000   78.941000 O    5138 GOL     0.0000 ****
12811 OIL     3.125000    5.641000   96.881000 O    5139 GOL     0.0000 ****
12812 OIL   -37.556000   86.372000  -13.914000 O    5140 GOL     0.0000 ****
12813 OIL    45.043000   27.745000  -92.394000 O    5141 GOL     0.0000 ****
12814 OIL    71.369000   43.732000   52.488000 O    5142 GOL     0.0000 ****
12815 OIL    13.100000   85.738000   -2.244000 O    5143 GOL     0.0000 ****
12816 OIL   -59.288000   26.094000   50.564000 O    5144 GOL     0.0000 ****
12817 OIL   -64.990000  -20.800000  -74.703000 O    5145 GOL     0.0000 ****
12818 OIL    91.231000   39.703000   -2.038000 O    5146 GOL     0.0000 ****
12819 OIL    -7.785000   -7.362000  -82.110000 O    5147 GOL     0.0000 ****
12820 OIL     4.994000   -5.604000 -103.171000 O    5148 GOL     0.0000 ****
12821 OIL   -18.129000  -60.599000    0.568000 O    5149 GOL     0.0000 ****
12822 OIL    44.652000  -71.836000   10.187000 O    5150 GOL     0.0000 ****
12823 OIL     9.367000   20.067000  102.130000 O    5151 GOL     0.0000 ****
12824 OIL   -61.944000  -12.669000  -62.414000 O    5152 GOL     0.0000 ****
12825 OIL    -7.969000   66.326000  -81.310000 O    5153 GOL     0.0000 ****
12826 OIL   -14.350000   49.999000   34.819000 O    5154 GOL     0.0000 ****
12827 OIL    38.914000  -55.612000  -74.219000 O    5155 GOL     0.0000 ****
12828 OIL   -28.566000  -29.620000   44.450000 O    5156 GOL     0.0000 ****
12829 OIL     3.456000  -75.248000  -51.950000 O    5157 GOL     0.0000 ****
12830 OIL   -69.248000    8.759000  -37.638000 O    5158 GOL     0.0000 ****
12831 OIL   -11.209000   80.106000  -51.135000 O    5159 GOL     0.0000 ****
12832 OIL   -45.271000  -63.921000  -52.349000 O    5160 GOL     0.0000 ****
12833 OIL    36.833000  -78.962000  -41.446000 O    5161 GOL     0.0000 ****
12834 OIL   -67.549000   29.714000    2.745000 O    5162 GOL     0.0000 ****
12835 OIL   -79.537000   34.204000  -62.913000 O    5163 GOL     0.0000 ****
12836 OIL   -34.067000  -61.435000  -63.527000 O    5164 GOL     0.0000 ****
12837 OIL    77.595000  -50.516000  -26.725000 O    5165 GOL     0.0000 ****
12838 OIL    97.777000   18.465000   -2.511000 O    5166 GOL     0.0000 ****
12839 OIL    50.428000  -27.318000  -79.339000 O    5167 GOL     0.0000 ****
12840 OIL    37.017000  -63.137000   67.080000 O    5168 GOL     0.0000 ****
12841 OIL    -1.302000    6.358000   89.292000 O    5169 GOL     0.0000 ****
12842 OIL    16.461000   79.127000    9.627000 O    5170 GOL     0.0000 ****
12843 OIL   -13.363000  -78.310000  -55.724000 O    5171 GOL     0.0000 ****
12844 OIL   -34.331000  -26.799000  -33.270000 O    5172 GOL     0.0000 ****
12845 OIL   -60.280000   52.827000   38.603000 O    5173 GOL     0.0000 ****
12846 OIL    13.854000  -59.295000   85.119000 O    5174 GOL     0.0000 ****
12847 OIL    43.470000   -4.159000   83.771000 O    5175 GOL     0.0000 ****
12848 OIL   -63.669000   33.531000   54.435000 O    5176 GOL     0.0000 ****
12849 OIL    17.488000   67.858000   81.019000 O    5177 GOL     0.0000 ****
12850 OIL    74.429000   49.673000   52.779000 O    5178 GOL     0.0000 ****
12851 OIL    70.534000   25.826000  -74.762000 O    5179 GOL     0.0000 ****
12852 OIL    77.477000   50.582000  -16.232000 O    5180 GOL     0.0000 ****
12853 OIL    -8.424000  -63.364000  -29.062000 O    5181 GOL     0.0000 ****
12854 OIL    -8.762000  -73.118000  -13.388000 O    5182 GOL     0.0000 ****
12855 OIL    44.142000   80.037000  -37.868000 O    5183 GOL     0.0000 ****
12856 OIL    16.269000   59.976000   54.273000 O    5184 GOL     0.0000 ****
12857 OIL   -13.270000  -15.485000   71.548000 O    5185 GOL     0.0000 ****
12858 OIL   -39.398000   60.277000   52.287000 O    5186 GOL     0.0000 ****
12859 OIL    32.612000  -23.151000  -71.130000 O    5187 GOL     0.0000 ****
12860 OIL   -10.350000   91.795000   54.071000 O    5188 GOL     0.0000 ****
12861 OIL   -22.559000   -6.012000 -104.656000 O    5189 GOL     0.0000 ****
12862 OIL    37.698000  -24.662000  -91.597000 O    5190 GOL     0.0000 ****
12863 OIL   -83.401000  -42.238000   10.008000 O    5191 GOL     0.0000 ****
12864 OIL   -98.957000    2.005000   15.135000 O    5192 GOL     0.0000 ****
12865 OIL    41.123000  -36.897000  -84.621000 O    5193 GOL     0.0000 ****
12866 OIL   -29.939000   93.142000   34.116000 O    5194 GOL     0.0000 ****
12867 OIL    51.448000   86.802000  -10.207000 O    5195 GOL     0.0000 ****
12868 OIL   -49.354000  -84.692000  -33.614000 O    5196 GOL     0.0000 ****
12869 OIL   -59.034000  -24.174000    2.933000 O    5197 GOL     0.0000 ****
12870 OIL    57.085000   86.666000  -25.715000 O    5198 GOL     0.0000 ****
12871 OIL    50.431000  -40.722000  -61.874000 O    5199 GOL     0.0000 ****
12872 OIL    -7.949000  -97.662000   -1.191000 O    5200 GOL     0.0000 ****
12873 OIL     4.094000  -82.782000   38.291000 O    5201 GOL     0.0000 ****
12874 OIL   -56.087000  -20.556000  -24.467000 O    5202 GOL     0.0000 ****
12875 OIL   -11.337000   86.213000  -52.576000 O    5203 GOL     0.0000 ****
12876 OIL   -37.097000  -45.118000  -84.191000 O    5204 GOL     0.0000 ****
12877 OIL   -62.298000  -38.189000   12.245000 O    5205 GOL     0.0000 ****
12878 OIL   -71.675000   -5.481000  -22.472000 O    5206 GOL     0.0000 ****
12879 OIL    57.046000   82.524000   37.188000 O    5207 GOL     0.0000 ****
12880 OIL    65.049000  -35.934000   62.995000 O    5208 GOL     0.0000 ****
12881 OIL    25.020000   28.503000  -84.858000 O    5209 GOL     0.0000 ****
12882 OIL    25.811000   26.032000  -96.519000 O    5210 GOL     0.0000 ****
12883 OIL   -65.730000  -32.359000  -36.854000 O    5211 GOL     0.0000 ****
12884 OIL    49.125000  -78.135000   39.924000 O    5212 GOL     0.0000 ****
12885 OIL   -83.846000  -47.074000   -1.876000 O    5213 GOL     0.0000 ****
12886 OIL    19.089000  -81.933000   19.138000 O    5214 GOL     0.0000 ****
12887 OIL   -35.044000  -26.908000  -29.521000 O    5215 GOL     0.0000 ****
12888 OIL    84.827000   42.497000  -33.015000 O    5216 GOL     0.0000 ****
12889 OIL   -72.312000   11.912000   25.255000 O    5217 GOL     0.0000 ****
12890 OIL   -48.072000   -0.748000   35.547000 O    5218 GOL     0.0000 ****
12891 OIL    38.263000  -90.222000  -36.008000 O    5219 GOL     0.0000 ****
12892 OIL    55.994000  -83.102000   16.045000 O    5220 GOL     0.0000 ****
12893 OIL   -34.702000   -5.059000  -44.889000 O    5221 GOL     0.0000 ****
12894 OIL    68.437000  -69.273000   26.580000 O    5222 GOL     0.0000 ****
12895 OIL   -53.258000  -54.511000    6.236000 O    5223 GOL     0.0000 ****
12896 OIL     3.509000   45.510000  -89.837000 O    5224 GOL     0.0000 ****
12897 OIL   -38.070000   -6.069000  -76.254000 O    5225 GOL     0.0000 ****
12898 OIL   -45.599000  -64.100000  -29.212000 O    5226 GOL     0.0000 ****
12899 OIL   -49.916000  -55.118000  -55.334000 O    5227 GOL     0.0000 ****
12900 OIL  -103.140000   -2.633000  -10.058000 O    5228 GOL     0.0000 ****
12901 OIL   -34.983000  -52.827000   48.207000 O    5229 GOL     0.0000 ****
12902 OIL   -19.615000  -68.754000  -22.181000 O    5230 GOL     0.0000 ****
12903 OIL   -68.423000  -39.821000  -40.907000 O    5231 GOL     0.0000 ****
12904 OIL   -41.935000  -61.332000   -8.724000 O    5232 GOL     0.0000 ****
12905 OIL    -4.248000  -71.472000  -14.787000 O    5233 GOL     0.0000 ****
12906 OIL   -34.628000   24.845000  -46.878000 O    5234 GOL     0.0000 ****
12907 OIL    -9.276000  -94.917000    5.963000 O    5235 GOL     0.0000 ****
12908 OIL     7.417000  -28.462000  -81.242000 O    5236 GOL     0.0000 ****
12909 OIL   -45.034000  -76.961000   53.330000 O    5237 GOL     0.0000 ****
12910 OIL   -40.926000   -9.182000   55.877000 O    5238 GOL     0.0000 ****
12911 OIL    11.151000  -37.754000   67.178000 O    5239 GOL     0.0000 ****
12912 OIL   -66.975000  -53.298000  -17.785000 O    5240 GOL     0.0000 ****
12913 OIL    79.314000  -10.726000  -56.787000 O    5241 GOL     0.0000 ****
12914 OIL  -106.052000    3.369000   -7.704000 O    5242 GOL     0.0000 ****
12915 OIL   -39.646000  -25.756000  -93.417000 O    5243 GOL     0.0000 ****
12916 OIL    45.854000  -64.949000  -54.731000 O    5244 GOL     0.0000 ****
12917 OIL    -4.857000   11.472000 -104.850000 O    5245 GOL     0.0000 ****
12918 OIL    43.131000  -64.303000   68.029000 O    5246 GOL     0.0000 ****
12919 OIL   -53.511000    2.901000  -49.491000 O    5247 GOL     0.0000 ****
12920 OIL    -6.571000  -81.235000  -51.408000 O    5248 GOL     0.0000 ****
12921 OIL    60.818000   65.559000  -22.496000 O    5249 GOL     0.0000 ****
12922 OIL    53.321000  -43.213000   74.459000 O    5250 GOL     0.0000 ****
12923 OIL   -57.299000  -11.327000  -11.113000 O    5251 GOL     0.0000 ****
12924 OIL    -1.105000 -103.473000  -21.881000 O    5252 GOL     0.0000 ****
12925 OIL     1.372000   -1.767000  -79.247000 O    5253 GOL     0.0000 ****
12926 OIL    34.170000  -74.188000   44.005000 O    5254 GOL     0.0000 ****
12927 OIL   -89.542000  -20.032000   49.561000 O    5255 GOL     0.0000 ****
12928 OIL   -11.923000   63.793000  -59.871000 O    5256 GOL     0.0000 ****
12929 OIL   -49.550000   64.575000   31.845000 O    5257 GOL     0.0000 ****
12930 OIL     7.098000  -53.695000   63.356000 O    5258 GOL     0.0000 ****
12931 OIL   -43.697000    1.969000   78.550000 O    5259 GOL     0.0000 ****
12932 OIL   -32.372000  -76.746000  -47.680000 O    5260 GOL     0.0000 ****
12933 OIL    37.844000  -98.050000  -21.151000 O    5261 GOL     0.0000 ****
12934 OIL   -46.458000   84.015000    2.684000 O    5262 GOL     0.0000 ****
12935 OIL   -97.226000   -2.210000   21.421000 O    5263 GOL     0.0000 ****
12936 OIL   -25.901000   65.949000  -12.639000 O    5264 GOL     0.0000 ****
12937 OIL   -55.168000  -40.838000  -33.526000 O    5265 GOL     0.0000 ****
12938 OIL     8.628000   71.134000   31.449000 O    5266 GOL     0.0000 ****
12939 OIL   -50.102000  -23.148000   13.371000 O    5267 GOL     0.0000 ****
12940 OIL   -46.840000  -78.071000   40.948000 O    5268 GOL     0.0000 ****
12941 OIL    27.910000  -76.231000   67.562000 O    5269 GOL     0.0000 ****
12942 OIL   -76.682000   11.076000   43.246000 O    5270 GOL     0.0000 ****
12943 OIL   -85.366000  -50.169000  -40.345000 O    5271 GOL     0.0000 ****
12944 OIL    31.667000  -40.024000   86.119000 O    5272 GOL     0.0000 ****
12945 OIL   -67.402000  -28.518000   60.250000 O    5273 GOL     0.0000 ****
12946 OIL   -40.189000   72.809000  -59.744000 O    5274 GOL     0.0000 ****
12947 OIL   -57.018000  -45.546000   -7.453000 O    5275 GOL     0.0000 ****
12948 OIL   -77.573000   29.319000   -6.238000 O    5276 GOL     0.0000 ****
12949 OIL   -52.884000   -5.191000   46.091000 O    5277 GOL     0.0000 ****
12950 OIL    -1.345000  -80.171000   21.683000 O    5278 GOL     0.0000 ****
12951 OIL   -12.640000   68.077000   56.771000 O    5279 GOL     0.0000 ****
12952 OIL   -36.902000  -33.162000   45.902000 O    5280 GOL     0.0000 ****
12953 OIL   -78.724000   14.258000   15.737000 O    5281 GOL     0.0000 ****
12954 OIL     4.359000   67.879000  -55.758000 O    5282 GOL     0.0000 ****
12955 OIL   -20.226000  -42.785000  -39.541000 O    5283 GOL     0.0000 ****
12956 OIL    87.623000  -47.715000    3.071000 O    5284 GOL     0.0000 ****
12957 OIL   -36.112000   47.083000  -63.327000 O    5285 GOL     0.0000 ****
12958 OIL   -11.571000  -49.449000   77.882000 O    5286 GOL     0.0000 ****
12959 OIL   -54.654000  -15.480000    7.396000 O    5287 GOL     0.0000 ****
12960 OIL    13.387000  -11.430000  -94.795000 O    5288 GOL     0.0000 ****
12961 OIL   -61.133000   67.383000  -18.661000 O    5289 GOL     0.0000 ****
12962 OIL    66.308000   61.360000  -39.815000 O    5290 GOL     0.0000 ****
12963 OIL   -26.082000  -83.457000   -4.911000 O    5291 GOL     0.0000 ****
12964 OIL   -84.853000  -26.136000  -58.435000 O    5292 GOL     0.0000 ****
12965 OIL    32.669000   72.439000   67.800000 O    5293 GOL     0.0000 ****
12966 OIL     8.017000   68.526000  -58.502000 O    5294 GOL     0.0000 ****
12967 OIL   -82.841000  -43.902000   37.535000 O    5295 GOL     0.0000 ****
12968 OIL     2.687000   20.498000   90.528000 O    5296 GOL     0.0000 ****
12969 OIL   -47.134000   16.268000  -19.975000 O    5297 GOL     0.0000 ****
12970 OIL   -74.953000   64.605000   19.847000 O    5298 GOL     0.0000 ****
12971 OIL    70.783000   59.991000   17.358000 O    5299 GOL     0.0000 ****
12972 OIL   -58.400000  -16.266000  -18.243000 O    5300 GOL     0.0000 ****
12973 OIL   -41.681000  -20.925000  -65.684000 O    5301 GOL     0.0000 ****
12974 OIL   -15.085000   38.228000  -56.827000 O    5302 GOL     0.0000 ****
12975 OIL    -5.273000  -78.813000  -21.849000 O    5303 GOL     0.0000 ****
12976 OIL   -40.199000   74.316000  -59.061000 O    5304 GOL     0.0000 ****
12977 OIL   -75.294000   10.830000   42.935000 O    5305 GOL     0.0000 ****
12978 OIL   -45.559000  -29.380000   71.739000 O    5306 GOL     0.0000 ****
12979 OIL     8.560000  -63.655000   54.108000 O    5307 GOL     0.0000 ****
12980 OIL   -38.662000  -74.707000  -40.910000 O    5308 GOL     0.0000 ****
12981 OIL    65.227000  -41.854000  -48.741000 O    5309 GOL     0.0000 ****
12982 OIL   -57.682000    8.664000   88.674000 O    5310 GOL     0.0000 ****
12983 OIL   -60.095000   -4.917000   -2.792000 O    5311 GOL     0.0000 ****
12984 OIL   -40.192000  -90.673000  -32.921000 O    5312 GOL     0.0000 ****
12985 OIL   -74.931000   58.397000  -39.700000 O    5313 GOL     0.0000 ****
12986 OIL   -29.467000   68.598000   10.487000 O    5314 GOL     0.0000 ****
12987 OIL   -38.736000   44.212000  -80.933000 O    5315 GOL     0.0000 ****
12988 OIL    96.695000  -41.223000   -1.996000 O    5316 GOL     0.0000 ****
12989 OIL    -3.092000  -69.204000   34.244000 O    5317 GOL     0.0000 ****
12990 OIL    87.049000   26.549000  -43.571000 O    5318 GOL     0.0000 ****
12991 OIL    49.905000   10.660000  -70.826000 O    5319 GOL     0.0000 ****
12992 OIL   -43.285000   53.454000  -66.950000 O    5320 GOL     0.0000 ****
12993 OIL   -75.066000   14.790000   71.479000 O    5321 GOL     0.0000 ****
12994 OIL   -98.573000  -31.964000  -13.209000 O    5322 GOL     0.0000 ****
12995 OIL   -79.971000  -66.185000  -13.029000 O    5323 GOL     0.0000 ****
12996 OIL   -87.832000   -2.852000   20.455000 O    5324 GOL     0.0000 ****
12997 OIL    24.408000   70.028000  -76.321000 O    5325 GOL     0.0000 ****
12998 OIL    13.451000   42.785000   73.066000 O    5326 GOL     0.0000 ****
12999 OIL   -88.443000    6.634000  -16.803000 O    5327 GOL     0.0000 ****
13000 OIL   -13.825000   62.111000  -70.345000 O    5328 GOL     0.0000 ****
13001 OIL    67.401000   -8.203000   69.334000 O    5329 GOL     0.0000 ****
13002 OIL   -45.264000  -17.364000   19.896000 O    5330 GOL     0.0000 ****
13003 OIL   -38.348000   66.504000  -38.931000 O    5331 GOL     0.0000 ****
13004 OIL   -54.196000   10.525000  -87.224000 O    5332 GOL     0.0000 ****
13005 OIL    35.255000  -76.906000  -30.147000 O    5333 GOL     0.0000 ****
13006 OIL   -57.644000  -30.088000  -61.161000 O    5334 GOL     0.0000 ****
13007 OIL    -4.793000   63.605000   31.777000 O    5335 GOL     0.0000 ****
13008 OIL    13.631000   79.069000   25.666000 O    5336 GOL     0.0000 ****
13009 OIL    -1.263000   48.467000   67.880000 O    5337 GOL     0.0000 ****
13010 OIL    37.386000  -48.861000   72.310000 O    5338 GOL     0.0000 ****
13011 OIL   -60.150000  -54.855000   52.978000 O    5339 GOL     0.0000 ****
13012 OIL   -45.184000   88.678000   11.625000 O    5340 GOL     0.0000 ****
13013 OIL     8.035000   27.346000   97.878000 O    5341 GOL     0.0000 ****
13014 OIL   -80.305000   70.272000   -4.875000 O    5342 GOL     0.0000 ****
13015 OIL    27.949000   26.055000   88.805000 O    5343 GOL     0.0000 ****
13016 OIL   -57.941000   -2.964000  -81.513000 O    5344 GOL     0.0000 ****
13017 OIL   -46.414000  -37.606000  -76.170000 O    5345 GOL     0.0000 ****
13018 OIL    60.571000   47.131000  -63.910000 O    5346 GOL     0.0000 ****
13019 OIL    87.337000   42.193000   -1.294000 O    5347 GOL     0.0000 ****
13020 OIL    50.714000    2.852000  -82.567000 O    5348 GOL     0.0000 ****
13021 OIL    66.598000    8.461000   82.375000 O    5349 GOL     0.0000 ****
13022 OIL   -47.964000    9.896000   82.442000 O    5350 GOL     0.0000 ****
13023 OIL    13.540000   -5.965000  -79.153000 O    5351 GOL     0.0000 ****
13024 OIL   103.948000  -13.031000   15.192000 O    5352 GOL     0.0000 ****
13025 OIL    35.243000  -80.774000   30.253000 O    5353 GOL     0.0000 ****
13026 OIL   -96.443000  -40.361000   -7.870000 O    5354 GOL     0.0000 ****
13027 OIL   -40.634000   -3.499000  -50.470000 O    5355 GOL     0.0000 ****
13028 OIL   -78.449000   48.767000   15.970000 O    5356 GOL     0.0000 ****
13029 OIL    -7.119000  -69.154000   30.989000 O    5357 GOL     0.0000 ****
13030 OIL     0.213000  -84.469000  -43.506000 O    5358 GOL     0.0000 ****
13031 OIL   -36.481000   -4.364000  -88.765000 O    5359 GOL     0.0000 ****
13032 OIL    52.701000   66.555000   58.540000 O    5360 GOL     0.0000 ****
13033 OIL    15.838000  -85.325000   -5.685000 O    5361 GOL     0.0000 ****
13034 OIL    35.719000   49.582000   71.767000 O    5362 GOL     0.0000 ****
13035 OIL   -50.398000   81.777000   24.428000 O    5363 GOL     0.0000 ****
13036 OIL    30.267000  -75.412000  -27.709000 O    5364 GOL     0.0000 ****
13037 OIL   -73.353000  -38.182000   -8.352000 O    5365 GOL     0.0000 ****
13038 OIL   -16.611000   78.212000   -4.412000 O    5366 GOL     0.0000 ****
13039 OIL   -75.060000   -0.694000   44.762000 O    5367 GOL     0.0000 ****
13040 OIL    -6.901000   68.027000   77.911000 O    5368 GOL     0.0000 ****
13041 OIL    51.820000   10.897000  -72.820000 O    5369 GOL     0.0000 ****
13042 OIL   -13.668000  -79.534000  -57.133000 O    5370 GOL     0.0000 ****
13043 OIL    20.039000  -66.868000  -44.316000 O    5371 GOL     0.0000 ****
13044 OIL    21.549000    2.389000   98.833000 O    5372 GOL     0.0000 ****
13045 OIL   -34.015000    0.451000   73.719000 O    5373 GOL     0.0000 ****
13046 OIL   -51.600000   44.524000   81.018000 O    5374 GOL     0.0000 ****
13047 OIL    62.632000  -36.715000   52.006000 O    5375 GOL     0.0000 ****
13048 OIL    -3.934000  -71.314000  -33.310000 O    5376 GOL     0.0000 ****
13049 OIL  -100.456000   20.079000   31.082000 O    5377 GOL     0.0000 ****
13050 OIL     2.878000  -55.039000  -75.298000 O    5378 GOL     0.0000 ****
13051 OIL   -47.448000  -23.161000  -29.768000 O    5379 GOL     0.0000 ****
13052 OIL     4.754000   24.332000   88.571000 O    5380 GOL     0.0000 ****
13053 OIL    58.669000  -28.533000   81.752000 O    5381 GOL     0.0000 ****
13054 OIL   -64.257000  -37.221000    6.461000 O    5382 GOL     0.0000 ****
13055 OIL    56.650000   74.454000  -36.983000 O    5383 GOL     0.0000 ****
13056 OIL   -23.688000   -7.142000  -83.267000 O    5384 GOL     0.0000 ****
13057 OIL   -27.956000  -47.313000   46.644000 O    5385 GOL     0.0000 ****
13058 OIL   -26.912000  -42.419000  -56.363000 O    5386 GOL     0.0000 ****
13059 OIL   -34.965000  -16.271000  -40.713000 O    5387 GOL     0.0000 ****
13060 OIL   -71.368000  -15.252000    5.388000 O    5388 GOL     0.0000 ****
13061 OIL   -60.802000   21.814000   21.574000 O    5389 GOL     0.0000 ****
13062 OIL   -59.230000  -37.799000   17.016000 O    5390 GOL     0.0000 ****
13063 OIL    50.610000  -60.539000   58.106000 O    5391 GOL     0.0000 ****
13064 OIL    33.565000   32.751000   80.476000 O    5392 GOL     0.0000 ****
13065 OIL   -97.308000   28.789000   -1.593000 O    5393 GOL     0.0000 ****
13066 OIL   -87.836000   25.876000   48.249000 O    5394 GOL     0.0000 ****
13067 OIL   -24.353000  -96.770000   26.390000 O    5395 GOL     0.0000 ****
13068 OIL   -33.342000   56.193000  -43.481000 O    5396 GOL     0.0000 ****
13069 OIL    67.740000   26.957000   61.768000 O    5397 GOL     0.0000 ****
13070 OIL    -1.773000  -81.802000  -38.034000 O    5398 GOL     0.0000 ****
13071 OIL   -90.269000   29.417000   44.062000 O    5399 GOL     0.0000 ****
13072 OIL     1.791000   54.063000  -60.830000 O    5400 GOL     0.0000 ****
13073 OIL   -72.074000  -41.254000   14.782000 O    5401 GOL     0.0000 ****
13074 OIL   -52.919000   34.382000   43.071000 O    5402 GOL     0.0000 ****
13075 OIL    27.918000  -95.877000   13.149000 O    5403 GOL     0.0000 ****
13076 OIL    90.855000  -19.239000  -42.062000 O    5404 GOL     0.0000 ****
13077 OIL   -46.063000  -73.783000    8.116000 O    5405 GOL     0.0000 ****
13078 OIL   -69.693000   17.136000   69.664000 O    5406 GOL     0.0000 ****
13079 OIL    34.474000  -48.043000   65.650000 O    5407 GOL     0.0000 ****
13080 OIL   -63.965000    2.571000  -43.029000 O    5408 GOL     0.0000 ****
13081 OIL   -83.373000  -51.090000  -39.592000 O    5409 GOL     0.0000 ****
13082 OIL   -10.853000   99.567000  -38.074000 O    5410 GOL     0.0000 ****
13083 OIL   -12.076000  -94.315000    0.466000 O    5411 GOL     0.0000 ****
13084 OIL   -21.446000   23.071000   88.445000 O    5412 GOL     0.0000 ****
13085 OIL   -68.554000   40.634000   56.036000 O    5413 GOL     0.0000 ****
13086 OIL    57.148000  -26.067000  -74.183000 O    5414 GOL     0.0000 ****
13087 OIL    23.624000   11.170000  100.797000 O    5415 GOL     0.0000 ****
13088 OIL     5.627000  -68.987000   39.916000 O    5416 GOL     0.0000 ****
13089 OIL     0.182000   14.672000  -82.699000 O    5417 GOL     0.0000 ****
13090 OIL    82.188000  -57.406000  -16.628000 O    5418 GOL     0.0000 ****
13091 OIL    39.929000  -79.631000  -52.531000 O    5419 GOL     0.0000 ****
13092 OIL    21.260000  -52.514000  -53.713000 O    5420 GOL     0.0000 ****
13093 OIL   -56.004000   90.888000    0.982000 O    5421 GOL     0.0000 ****
13094 OIL   -64.750000  -50.415000   68.273000 O    5422 GOL     0.0000 ****
13095 OIL    37.284000    3.179000   72.529000 O    5423 GOL     0.0000 ****
13096 OIL   -59.939000  -39.144000  -44.731000 O    5424 GOL     0.0000 ****
13097 OIL   -64.314000  -22.137000   51.170000 O    5425 GOL     0.0000 ****
13098 OIL   -64.955000    3.214000  -72.683000 O    5426 GOL     0.0000 ****
13099 OIL   -57.321000   81.164000  -33.714000 O    5427 GOL     0.0000 ****
13100 OIL     0.999000  -85.468000   60.422000 O    5428 GOL     0.0000 ****
13101 OIL    -3.093000  -52.685000  -41.105000 O    5429 GOL     0.0000 ****
13102 OIL    -7.712000  -49.235000   51.675000 O    5430 GOL     0.0000 ****
13103 OIL   -30.408000  -27.424000   56.433000 O    5431 GOL     0.0000 ****
13104 OIL    51.062000  -85.527000   16.572000 O    5432 GOL     0.0000 ****
13105 OIL     0.978000  -99.954000    3.146000 O    5433 GOL     0.0000 ****
13106 OIL   -19.400000  -51.418000   83.113000 O    5434 GOL     0.0000 ****
13107 OIL     9.790000  -98.001000  -11.159000 O    5435 GOL     0.0000 ****
13108 OIL   -44.768000  -88.337000   -5.386000 O    5436 GOL     0.0000 ****
13109 OIL   -32.411000   47.920000   -6.796000 O    5437 GOL     0.0000 ****
13110 OIL   -29.983000  -65.268000   23.250000 O    5438 GOL     0.0000 ****
13111 OIL   -43.845000  -55.579000  -41.762000 O    5439 GOL     0.0000 ****
13112 OIL    97.909000  -23.179000  -24.061000 O    5440 GOL     0.0000 ****
13113 OIL   -60.177000    3.641000   60.957000 O    5441 GOL     0.0000 ****
13114 OIL   -64.551000   75.055000  -34.987000 O    5442 GOL     0.0000 ****
13115 OIL   -46.671000  -58.114000   -3.816000 O    5443 GOL     0.0000 ****
13116 OIL   -57.736000   -2.649000   -2.145000 O    5444 GOL     0.0000 ****
13117 OIL   -27.525000  -85.041000   30.637000 O    5445 GOL     0.0000 ****
13118 OIL   -77.471000  -64.831000  -33.319000 O    5446 GOL     0.0000 ****
13119 OIL   -57.803000  -41.847000  -55.196000 O    5447 GOL     0.0000 ****
13120 OIL   -31.199000  -90.116000   30.917000 O    5448 GOL     0.0000 ****
13121 OIL   -51.860000  -46.937000   25.263000 O    5449 GOL     0.0000 ****
13122 OIL    21.337000   -9.930000  -74.778000 O    5450 GOL     0.0000 ****
13123 OIL   -47.672000   45.493000  -75.492000 O    5451 GOL     0.0000 ****
13124 OIL   -23.936000   86.321000   28.521000 O    5452 GOL     0.0000 ****
13125 OIL   -95.415000   16.207000  -28.931000 O    5453 GOL     0.0000 ****
13126 OIL   -48.002000  -80.041000   -5.648000 O    5454 GOL     0.0000 ****
13127 OIL    37.078000   56.257000  -83.290000 O    5455 GOL     0.0000 ****
13128 OIL   -41.567000   73.399000   19.914000 O    5456 GOL     0.0000 ****
13129 OIL    53.668000    9.385000  -80.708000 O    5457 GOL     0.0000 ****
13130 OIL    90.313000   11.646000   48.157000 O    5458 GOL     0.0000 ****
13131 OIL   -95.010000    9.593000   20.113000 O    5459 GOL     0.0000 ****
13132 OIL    39.834000  -83.347000  -54.101000 O    5460 GOL     0.0000 ****
13133 OIL   -25.398000   79.734000  -60.416000 O    5461 GOL     0.0000 ****
13134 OIL    36.623000  -87.908000  -45.103000 O    5462 GOL     0.0000 ****
13135 OIL    50.689000  -31.109000  -61.941000 O    5463 GOL     0.0000 ****
13136 OIL   -34.391000  -71.223000   -3.553000 O    5464 GOL     0.0000 ****
13137 OIL    31.867000   99.182000   12.018000 O    5465 GOL     0.0000 ****
13138 OIL   -69.401000  -43.523000   63.023000 O    5466 GOL     0.0000 ****
13139 OIL   -40.924000   40.929000  -87.087000 O    5467 GOL     0.0000 ****
13140 OIL    94.331000    2.523000   37.366000 O    5468 GOL     0.0000 ****
13141 OIL   -61.417000  -46.417000   69.881000 O    5469 GOL     0.0000 ****
13142 OIL   -19.655000    7.634000   66.027000 O    5470 GOL     0.0000 ****
13143 OIL    50.319000  -72.392000  -39.377000 O    5471 GOL     0.0000 ****
13144 OIL   -11.107000   26.185000   57.593000 O    5472 GOL     0.0000 ****
13145 OIL   -17.649000  -87.129000   53.224000 O    5473 GOL     0.0000 ****
13146 OIL   -28.014000  -53.152000   30.090000 O    5474 GOL     0.0000 ****
13147 OIL   -38.451000   -8.857000  -83.374000 O    5475 GOL     0.0000 ****
13148 OIL    31.373000   82.851000   46.558000 O    5476 GOL     0.0000 ****
13149 OIL    17.086000   11.169000   75.444000 O    5477 GOL     0.0000 ****
13150 OIL   -26.373000  -67.716000   66.821000 O    5478 GOL     0.0000 ****
13151 OIL    14.567000   -3.669000   81.203000 O    5479 GOL     0.0000 ****
13152 OIL   -28.376000  -24.837000  -79.282000 O    5480 GOL     0.0000 ****
13153 OIL    -5.596000   16.085000   93.642000 O    5481 GOL     0.0000 ****
13154 OIL   -24.066000   21.620000  -96.482000 O    5482 GOL     0.0000 ****
13155 OIL   -13.278000  -55.822000  -78.391000 O    5483 GOL     0.0000 ****
13156 OIL   -47.936000  -12.220000  -54.766000 O    5484 GOL     0.0000 ****
13157 OIL    85.951000   37.472000   48.336000 O    5485 GOL     0.0000 ****
13158 OIL   -56.073000   83.323000   -0.819000 O    5486 GOL     0.0000 ****
13159 OIL   -19.247000   58.184000   25.780000 O    5487 GOL     0.0000 ****
13160 OIL     5.365000  -84.359000   -2.993000 O    5488 GOL     0.0000 ****
13161 OIL    16.529000  -71.163000   37.796000 O    5489 GOL     0.0000 ****
13162 OIL     8.983000   89.065000   36.830000 O    5490 GOL     0.0000 ****
13163 OIL    77.047000  -56.993000  -14.460000 O    5491 GOL     0.0000 ****
13164 OIL    64.295000  -70.336000    4.381000 O    5492 GOL     0.0000 ****
13165 OIL    23.559000  -65.329000   60.331000 O    5493 GOL     0.0000 ****
13166 OIL   -69.226000  -45.781000  -46.156000 O    5494 GOL     0.0000 ****
13167 OIL   -40.010000   56.646000  -54.746000 O    5495 GOL     0.0000 ****
13168 OIL    63.751000   13.718000   78.887000 O    5496 GOL     0.0000 ****
13169 OIL   -54.608000  -39.977000  -47.934000 O    5497 GOL     0.0000 ****
13170 OIL   -62.277000  -68.492000  -42.271000 O    5498 GOL     0.0000 ****
13171 OIL   -16.789000   84.359000  -15.117000 O    5499 GOL     0.0000 ****
13172 OIL   -72.213000    7.887000   52.924000 O    5500 GOL     0.0000 ****
13173 OIL    -3.520000  -81.316000  -27.972000 O    5501 GOL     0.0000 ****
13174 OIL    -7.185000  -27.178000   78.121000 O    5502 GOL     0.0000 ****
13175 OIL    -3.426000  -61.955000  -63.213000 O    5503 GOL     0.0000 ****
13176 OIL   -18.974000   49.022000   90.964000 O    5504 GOL     0.0000 ****
13177 OIL    59.716000  -19.678000  -85.955000 O    5505 GOL     0.0000 ****
13178 OIL   -21.428000   65.564000  -78.105000 O    5506 GOL     0.0000 ****
13179 OIL   -89.109000  -26.843000  -23.688000 O    5507 GOL     0.0000 ****
13180 OIL    37.789000   41.485000  -78.058000 O    5508 GOL     0.0000 ****
13181 OIL   -46.515000  -35.819000   33.578000 O    5509 GOL     0.0000 ****
13182 OIL    36.476000   50.610000   78.529000 O    5510 GOL     0.0000 ****
13183 OIL   -18.078000  -60.329000    2.301000 O    5511 GOL     0.0000 ****
13184 OIL   -58.909000  -32.148000  -45.517000 O    5512 GOL     0.0000 ****
13185 OIL    -1.039000   92.830000   32.926000 O    5513 GOL     0.0000 ****
13186 OIL   -47.449000  -35.920000  -66.118000 O    5514 GOL     0.0000 ****
13187 OIL   -59.837000  -15.779000   70.198000 O    5515 GOL     0.0000 ****
13188 OIL    20.414000  -12.195000  -99.481000 O    5516 GOL     0.0000 ****
13189 OIL   -37.429000  -29.738000   62.492000 O    5517 GOL     0.0000 ****
13190 OIL    24.349000   -8.734000  -73.348000 O    5518 GOL     0.0000 ****
13191 OIL   -21.140000   -5.025000  103.986000 O    5519 GOL     0.0000 ****
13192 OIL   -13.192000  -92.794000    7.492000 O    5520 GOL     0.0000 ****
13193 OIL   -14.518000  -38.389000  -49.023000 O    5521 GOL     0.0000 ****
13194 OIL   -45.928000    1.694000  -46.917000 O    5522 GOL     0.0000 ****
13195 OIL    45.631000   79.320000  -34.122000 O    5523 GOL     0.0000 ****
13196 OIL   -45.154000   19.723000   42.667000 O    5524 GOL     0.0000 ****
13197 OIL   -11.301000  -82.730000  -19.150000 O    5525 GOL     0.0000 ****
13198 OIL    21.915000   -7.791000   95.662000 O    5526 GOL     0.0000 ****
13199 OIL   -12.778000   24.612000   79.653000 O    5527 GOL     0.0000 ****
13200 OIL   -54.029000   37.288000  -59.797000 O    5528 GOL     0.0000 ****
13201 OIL   -36.089000   70.368000   53.963000 O    5529 GOL     0.0000 ****
13202 OIL    -3.974000   15.073000  -91.093000 O    5530 GOL     0.0000 ****
13203 OIL    26.528000   90.196000  -26.475000 O    5531 GOL     0.0000 ****
13204 OIL   -42.001000   55.404000   20.234000 O    5532 GOL     0.0000 ****
13205 OIL   -10.354000   13.781000   85.015000 O    5533 GOL     0.0000 ****
13206 OIL   -29.866000   80.192000  -36.535000 O    5534 GOL     0.0000 ****
13207 OIL   -12.377000   59.896000   82.753000 O    5535 GOL     0.0000 ****
13208 OIL    39.653000  -33.373000  -72.075000 O    5536 GOL     0.0000 ****
13209 OIL    16.539000  -48.068000  -76.738000 O    5537 GOL     0.0000 ****
13210 OIL    64.536000   19.729000  -61.709000 O    5538 GOL     0.0000 ****
13211 OIL    40.941000   88.190000   26.218000 O    5539 GOL     0.0000 ****
13212 OIL   -24.944000  -86.646000   50.785000 O    5540 GOL     0.0000 ****
13213 OIL    -7.908000  -45.066000   48.302000 O    5541 GOL     0.0000 ****
13214 OIL    15.952000   -3.764000  101.700000 O    5542 GOL     0.0000 ****
13215 OIL   -17.080000  -87.683000   -5.052000 O    5543 GOL     0.0000 ****
13216 OIL   -72.559000   35.296000   -4.376000 O    5544 GOL     0.0000 ****
13217 OIL    20.787000  -24.826000   98.563000 O    5545 GOL     0.0000 ****
13218 OIL    47.139000   72.721000    0.574000 O    5546 GOL     0.0000 ****
13219 OIL   -24.695000  -80.193000   61.176000 O    5547 GOL     0.0000 ****
13220 OIL    13.122000  -28.905000 -102.515000 O    5548 GOL     0.0000 ****
13221 OIL   -87.599000   40.152000   12.496000 O    5549 GOL     0.0000 ****
13222 OIL   -11.000000   93.909000  -26.945000 O    5550 GOL     0.0000 ****
13223 OIL   -20.119000  -81.724000    5.155000 O    5551 GOL     0.0000 ****
13224 OIL     4.230000 -102.325000   30.858000 O    5552 GOL     0.0000 ****
13225 OIL    -3.273000   99.819000  -27.201000 O    5553 GOL     0.0000 ****
13226 OIL    -3.049000   14.840000   84.706000 O    5554 GOL     0.0000 ****
13227 OIL    34.253000   92.437000  -40.618000 O    5555 GOL     0.0000 ****
13228 OIL    -4.520000   -1.908000  104.268000 O    5556 GOL     0.0000 ****
13229 OIL   -65.329000   47.891000  -43.092000 O    5557 GOL     0.0000 ****
13230 OIL   -57.436000   10.833000  -45.098000 O    5558 GOL     0.0000 ****
13231 OIL    22.394000   53.588000  -53.618000 O    5559 GOL     0.0000 ****
13232 OIL   -27.017000    7.460000  -66.969000 O    5560 GOL     0.0000 ****
13233 OIL   -48.349000  -73.843000  -50.094000 O    5561 GOL     0.0000 ****
13234 OIL    89.424000   35.569000  -29.801000 O    5562 GOL     0.0000 ****
13235 OIL     0.036000  -84.387000   20.730000 O    5563 GOL     0.0000 ****
13236 OIL    -8.905000  -65.417000  -18.151000 O    5564 GOL     0.0000 ****
13237 OIL    -2.757000   22.554000  -76.857000 O    5565 GOL     0.0000 ****
13238 OIL    76.050000   -6.007000  -57.345000 O    5566 GOL     0.0000 ****
13239 OIL   -47.563000   83.863000  -36.492000 O    5567 GOL     0.0000 ****
13240 OIL    18.043000   54.855000   81.317000 O    5568 GOL     0.0000 ****
13241 OIL   -37.901000  -33.212000  -26.943000 O    5569 GOL     0.0000 ****
13242 OIL   -89.022000  -29.055000   23.789000 O    5570 GOL     0.0000 ****
13243 OIL   -82.849000   32.733000   -6.369000 O    5571 GOL     0.0000 ****
13244 OIL    38.266000  -67.970000   66.513000 O    5572 GOL     0.0000 ****
13245 OIL    66.137000   54.481000   41.099000 O    5573 GOL     0.0000 ****
13246 OIL    55.531000  -38.211000   82.226000 O    5574 GOL     0.0000 ****
13247 OIL   -48.154000   42.021000  -10.580000 O    5575 GOL     0.0000 ****
13248 OIL   -23.232000 -101.198000    7.704000 O    5576 GOL     0.0000 ****
13249 OIL   -82.551000  -39.269000    9.145000 O    5577 GOL     0.0000 ****
13250 OIL   -93.367000   12.389000   -2.223000 O    5578 GOL     0.0000 ****
13251 OIL    76.845000  -54.355000   29.955000 O    5579 GOL     0.0000 ****
13252 OIL    41.706000  -82.421000    2.541000 O    5580 GOL     0.0000 ****
13253 OIL   -24.731000  -36.706000  -77.849000 O    5581 GOL     0.0000 ****
13254 OIL   -16.246000  -79.838000   -0.657000 O    5582 GOL     0.0000 ****
13255 OIL   -64.354000   35.258000   65.573000 O    5583 GOL     0.0000 ****
13256 OIL   -84.926000   -8.563000  -45.065000 O    5584 GOL     0.0000 ****
13257 OIL     2.363000  -78.618000  -58.628000 O    5585 GOL     0.0000 ****
13258 OIL    -6.623000   36.106000   63.851000 O    5586 GOL     0.0000 ****
13259 OIL   -67.103000   34.272000   75.795000 O    5587 GOL     0.0000 ****
13260 OIL   -32.108000   35.072000   27.862000 O    5588 GOL     0.0000 ****
13261 OIL   -43.556000  -43.719000   13.816000 O    5589 GOL     0.0000 ****
13262 OIL  -100.238000  -21.965000  -11.129000 O    5590 GOL     0.0000 ****
13263 OIL    11.189000   35.181000   87.040000 O    5591 GOL     0.0000 ****
13264 OIL    59.307000   12.062000  -67.067000 O    5592 GOL     0.0000 ****
13265 OIL   -17.249000   65.298000   23.058000 O    5593 GOL     0.0000 ****
13266 OIL   -55.906000  -23.447000    1.400000 O    5594 GOL     0.0000 ****
13267 OIL    42.723000   29.175000  -77.540000 O    5595 GOL     0.0000 ****
13268 OIL    30.252000   78.330000  -15.871000 O    5596 GOL     0.0000 ****
13269 OIL   -52.284000   63.362000   51.525000 O    5597 GOL     0.0000 ****
13270 OIL    72.113000   42.458000  -42.597000 O    5598 GOL     0.0000 ****
13271 OIL   -67.397000   53.606000  -60.395000 O    5599 GOL     0.0000 ****
13272 OIL   -34.548000   27.405000   89.035000 O    5600 GOL     0.0000 ****
13273 OIL    -6.054000   69.379000  -23.822000 O    5601 GOL     0.0000 ****
13274 OIL    23.550000   68.898000   73.840000 O    5602 GOL     0.0000 ****
13275 OIL   -28.083000  -47.230000   73.604000 O    5603 GOL     0.0000 ****
13276 OIL    26.837000  -25.981000   67.098000 O    5604 GOL     0.0000 ****
13277 OIL   -25.356000  -24.835000  -95.197000 O    5605 GOL     0.0000 ****
13278 OIL   -73.440000  -29.759000  -39.427000 O    5606 GOL     0.0000 ****
13279 OIL   -50.988000   16.475000   77.079000 O    5607 GOL     0.0000 ****
13280 OIL    29.596000   82.784000   60.775000 O    5608 GOL     0.0000 ****
13281 OIL    84.814000  -17.069000   50.167000 O    5609 GOL     0.0000 ****
13282 OIL   -24.773000  -78.857000  -19.232000 O    5610 GOL     0.0000 ****
13283 OIL     6.443000  -44.013000  -56.232000 O    5611 GOL     0.0000 ****
13284 OIL   -26.791000  -86.463000   32.186000 O    5612 GOL     0.0000 ****
13285 OIL   -19.883000   32.066000   85.204000 O    5613 GOL     0.0000 ****
13286 OIL   -23.488000  -72.739000   36.576000 O    5614 GOL     0.0000 ****
13287 OIL   -19.811000   32.302000   85.948000 O    5615 GOL     0.0000 ****
13288 OIL   -47.778000   -5.777000   80.094000 O    5616 GOL     0.0000 ****
13289 OIL    -9.623000  -75.844000  -56.744000 O    5617 GOL     0.0000 ****
13290 OIL    54.854000   76.377000  -12.186000 O    5618 GOL     0.0000 ****
13291 OIL    11.665000  -26.153000  -99.295000 O    5619 GOL     0.0000 ****
13292 OIL    -8.158000  -11.872000 -104.993000 O    5620 GOL     0.0000 ****
13293 OIL   -10.754000   47.385000  -55.608000 O    5621 GOL     0.0000 ****
13294 OIL   -12.827000  -80.175000   65.816000 O    5622 GOL     0.0000 ****
13295 OIL   -20.780000  -12.290000  -93.422000 O    5623 GOL     0.0000 ****
13296 OIL    -8.175000  -36.035000  -79.856000 O    5624 GOL     0.0000 ****
13297 OIL   -45.386000  -56.657000    8.435000 O    5625 GOL     0.0000 ****
13298 OIL   -73.347000   62.264000  -28.143000 O    5626 GOL     0.0000 ****
13299 OIL   -71.530000  -34.586000  -28.288000 O    5627 GOL     0.0000 ****
13300 OIL    36.440000  -16.796000   96.732000 O    5628 GOL     0.0000 ****
13301 OIL    52.849000  -12.376000   75.616000 O    5629 GOL     0.0000 ****
13302 OIL    81.769000   -4.625000   64.305000 O    5630 GOL     0.0000 ****
13303 OIL    -2.584000   15.238000   85.123000 O    5631 GOL     0.0000 ****
13304 OIL   -72.992000    7.554000  -58.323000 O    5632 GOL     0.0000 ****
13305 OIL    41.009000   59.302000   67.333000 O    5633 GOL     0.0000 ****
13306 OIL    67.618000   62.730000  -12.451000 O    5634 GOL     0.0000 ****
13307 OIL     9.280000  -81.735000  -61.494000 O    5635 GOL     0.0000 ****
13308 OIL   -72.263000  -57.268000   -0.170000 O    5636 GOL     0.0000 ****
13309 OIL    -5.829000   53.909000  -47.225000 O    5637 GOL     0.0000 ****
13310 OIL    87.243000   14.496000  -55.861000 O    5638 GOL     0.0000 ****
13311 OIL    56.663000  -87.994000  -13.582000 O    5639 GOL     0.0000 ****
13312 OIL   -75.706000   64.410000   11.798000 O    5640 GOL     0.0000 ****
13313 OIL   -19.705000   -5.070000   72.818000 O    5641 GOL     0.0000 ****
13314 OIL    50.955000  -31.711000  -71.203000 O    5642 GOL     0.0000 ****
13315 OIL   -37.472000   -5.841000   79.595000 O    5643 GOL     0.0000 ****
13316 OIL   -24.708000   62.300000  -18.741000 O    5644 GOL     0.0000 ****
13317 OIL    65.725000   67.575000    0.321000 O    5645 GOL     0.0000 ****
13318 OIL    -7.841000   54.948000   74.260000 O    5646 GOL     0.0000 ****
13319 OIL   -49.896000   17.478000   89.581000 O    5647 GOL     0.0000 ****
13320 OIL   -95.505000   -5.438000  -32.452000 O    5648 GOL     0.0000 ****
13321 OIL     7.868000  -98.679000  -27.676000 O    5649 GOL     0.0000 ****
13322 OIL   -79.581000    8.774000  -62.707000 O    5650 GOL     0.0000 ****
13323 OIL   -75.813000    2.720000   46.200000 O    5651 GOL     0.0000 ****
13324 OIL   -70.403000  -26.126000  -69.954000 O    5652 GOL     0.0000 ****
13325 OIL   -47.217000  -33.312000   76.378000 O    5653 GOL     0.0000 ****
13326 OIL   -84.201000  -61.428000  -22.182000 O    5654 GOL     0.0000 ****
13327 OIL   -53.298000   65.125000  -44.755000 O    5655 GOL     0.0000 ****
13328 OIL   -58.154000   10.435000  -36.912000 O    5656 GOL     0.0000 ****
13329 OIL   -87.906000   38.232000   27.649000 O    5657 GOL     0.0000 ****
13330 OIL   -72.315000    0.071000  -78.115000 O    5658 GOL     0.0000 ****
13331 OIL   -36.624000   56.096000  -29.676000 O    5659 GOL     0.0000 ****
13332 OIL    63.374000  -62.841000  -24.486000 O    5660 GOL     0.0000 ****
13333 OIL   -56.194000   35.905000   49.741000 O    5661 GOL     0.0000 ****
13334 OIL     2.750000   67.297000  -82.004000 O    5662 GOL     0.0000 ****
13335 OIL     0.855000  102.096000    9.198000 O    5663 GOL     0.0000 ****
13336 OIL   -76.525000   66.628000  -33.389000 O    5664 GOL     0.0000 ****
13337 OIL   -56.705000    3.877000  -15.370000 O    5665 GOL     0.0000 ****
13338 OIL   -55.276000  -49.918000   -7.682000 O    5666 GOL     0.0000 ****
13339 OIL   -59.105000  -16.008000   60.498000 O    5667 GOL     0.0000 ****
13340 OIL   -26.550000  -12.248000   47.465000 O    5668 GOL     0.0000 ****
13341 OIL   -24.296000   70.528000   63.833000 O    5669 GOL     0.0000 ****
13342 OIL   -34.084000  -68.596000   47.828000 O    5670 GOL     0.0000 ****
13343 OIL   -58.593000  -24.584000  -45.057000 O    5671 GOL     0.0000 ****
13344 OIL    -0.280000  -11.634000  -87.617000 O    5672 GOL     0.0000 ****
13345 OIL    10.835000   46.521000  -63.924000 O    5673 GOL     0.0000 ****
13346 OIL    -2.881000   98.806000    8.083000 O    5674 GOL     0.0000 ****
13347 OIL    -0.195000   80.085000  -70.237000 O    5675 GOL     0.0000 ****
13348 OIL   -12.570000   54.579000   58.164000 O    5676 GOL     0.0000 ****
13349 OIL    -1.941000   61.764000  -56.676000 O    5677 GOL     0.0000 ****
13350 OIL   -44.902000   54.378000   13.849000 O    5678 GOL     0.0000 ****
13351 OIL   -11.581000  -81.405000   10.642000 O    5679 GOL     0.0000 ****
13352 OIL    -7.776000   29.564000   60.465000 O    5680 GOL     0.0000 ****
13353 OIL   -37.825000   88.266000  -36.317000 O    5681 GOL     0.0000 ****
13354 OIL   -14.863000   91.564000   45.769000 O    5682 GOL     0.0000 ****
13355 OIL    22.740000  -81.531000   22.402000 O    5683 GOL     0.0000 ****
13356 OIL   -43.639000   56.377000  -24.881000 O    5684 GOL     0.0000 ****
13357 OIL    52.869000   -8.099000   80.511000 O    5685 GOL     0.0000 ****
13358 OIL   -84.159000   28.848000   59.401000 O    5686 GOL     0.0000 ****
13359 OIL    52.280000  -67.036000   14.997000 O    5687 GOL     0.0000 ****
13360 OIL    64.068000   46.978000   63.322000 O    5688 GOL     0.0000 ****
13361 OIL    53.232000    1.512000   70.284000 O    5689 GOL     0.0000 ****
13362 OIL    19.548000   73.362000   38.654000 O    5690 GOL     0.0000 ****
13363 OIL   -83.761000   11.047000   22.928000 O    5691 GOL     0.0000 ****
13364 OIL   -14.400000  -53.197000   46.627000 O    5692 GOL     0.0000 ****
13365 OIL   -11.530000   40.931000  -94.727000 O    5693 GOL     0.0000 ****
13366 OIL    80.320000   -3.895000   62.298000 O    5694 GOL     0.0000 ****
13367 OIL   -45.613000  -90.176000   -5.382000 O    5695 GOL     0.0000 ****
13368 OIL   -13.492000  -91.260000  -41.750000 O    5696 GOL     0.0000 ****
13369 OIL    59.329000   35.556000   81.558000 O    5697 GOL     0.0000 ****
13370 OIL   -28.290000   52.538000   16.241000 O    5698 GOL     0.0000 ****
13371 OIL    46.406000  -43.663000  -68.830000 O    5699 GOL     0.0000 ****
13372 OIL   -26.708000  -24.581000   76.004000 O    5700 GOL     0.0000 ****
13373 OIL   -23.233000  -51.887000   74.860000 O    5701 GOL     0.0000 ****
13374 OIL    64.791000   34.369000  -58.250000 O    5702 GOL     0.0000 ****
13375 OIL    94.890000  -34.369000   10.717000 O    5703 GOL     0.0000 ****
13376 OIL   -66.645000  -12.616000    6.978000 O    5704 GOL     0.0000 ****
13377 OIL   -62.629000   48.672000  -51.538000 O    5705 GOL     0.0000 ****
13378 OIL     8.013000  -81.431000  -63.580000 O    5706 GOL     0.0000 ****
13379 OIL   -47.881000   18.169000  -72.222000 O    5707 GOL     0.0000 ****
13380 OIL   -56.335000   32.881000  -35.721000 O    5708 GOL     0.0000 ****
13381 OIL   -23.077000   70.847000  -34.604000 O    5709 GOL     0.0000 ****
13382 OIL   -58.568000  -12.238000  -72.629000 O    5710 GOL     0.0000 ****
13383 OIL    -7.849000   39.829000  -80.225000 O    5711 GOL     0.0000 ****
13384 OIL    17.086000  -80.963000   54.287000 O    5712 GOL     0.0000 ****
13385 OIL    -7.228000  -24.686000  -61.852000 O    5713 GOL     0.0000 ****
13386 OIL   -30.920000   92.097000  -44.977000 O    5714 GOL     0.0000 ****
13387 OIL   -19.093000   29.763000   73.678000 O    5715 GOL     0.0000 ****
13388 OIL   -60.477000   34.958000  -47.763000 O    5716 GOL     0.0000 ****
13389 OIL    98.545000   11.708000   -7.705000 O    5717 GOL     0.0000 ****
13390 OIL   -41.493000  -30.133000   33.089000 O    5718 GOL     0.0000 ****
13391 OIL    -2.053000  -97.628000  -22.395000 O    5719 GOL     0.0000 ****
13392 OIL   -78.784000    0.991000   48.934000 O    5720 GOL     0.0000 ****
13393 OIL   -13.878000  -88.615000   31.510000 O    5721 GOL     0.0000 ****
13394 OIL   -97.810000   15.551000  -20.692000 O    5722 GOL     0.0000 ****
13395 OIL    12.359000   96.818000   16.594000 O    5723 GOL     0.0000 ****
13396 OIL   -37.350000  -59.610000   12.335000 O    5724 GOL     0.0000 ****
13397 OIL   -55.977000   13.674000   40.200000 O    5725 GOL     0.0000 ****
13398 OIL    67.737000  -56.783000  -46.886000 O    5726 GOL     0.0000 ****
13399 OIL   -31.674000   36.903000   93.138000 O    5727 GOL     0.0000 ****
13400 OIL     3.637000  -57.203000  -88.535000 O    5728 GOL     0.0000 ****
13401 OIL     0.106000   19.985000  -82.381000 O    5729 GOL     0.0000 ****
13402 OIL    28.383000  -38.345000  -67.767000 O    5730 GOL     0.0000 ****
13403 OIL   -86.847000   48.940000   -3.798000 O    5731 GOL     0.0000 ****
13404 OIL     1.157000   65.654000   36.603000 O    5732 GOL     0.0000 ****
13405 OIL   -34.725000   40.224000  -25.869000 O    5733 GOL     0.0000 ****
13406 OIL    50.319000  -63.548000  -45.830000 O    5734 GOL     0.0000 ****
13407 OIL   -45.978000  -33.887000  -22.724000 O    5735 GOL     0.0000 ****
13408 OIL    10.856000  -49.444000   79.140000 O    5736 GOL     0.0000 ****
13409 OIL    -2.436000  -28.772000   71.326000 O    5737 GOL     0.0000 ****
13410 OIL   -56.800000  -10.040000   21.751000 O    5738 GOL     0.0000 ****
13411 OIL    49.827000  -27.331000  -78.142000 O    5739 GOL     0.0000 ****
13412 OIL    86.949000   25.422000   52.557000 O    5740 GOL     0.0000 ****
13413 OIL   -26.837000   68.605000  -23.748000 O    5741 GOL     0.0000 ****
13414 OIL   -50.260000    4.088000   20.484000 O    5742 GOL     0.0000 ****
13415 OIL   -72.943000  -46.582000  -40.998000 O    5743 GOL     0.0000 ****
13416 OIL     8.697000  -59.957000  -86.469000 O    5744 GOL     0.0000 ****
13417 OIL   -56.107000  -62.677000   57.915000 O    5745 GOL     0.0000 ****
13418 OIL    21.102000   67.107000   68.443000 O    5746 GOL     0.0000 ****
13419 OIL   -56.971000   66.379000  -38.898000 O    5747 GOL     0.0000 ****
13420 OIL    38.155000  -42.508000   89.596000 O    5748 GOL     0.0000 ****
13421 OIL    70.161000   75.352000    7.590000 O    5749 GOL     0.0000 ****
13422 OIL   -61.407000  -40.408000   -0.769000 O    5750 GOL     0.0000 ****
13423 OIL   -97.117000  -37.203000  -25.577000 O    5751 GOL     0.0000 ****
13424 OIL    46.720000   54.384000   68.538000 O    5752 GOL     0.0000 ****
13425 OIL   -58.737000   52.284000   47.364000 O    5753 GOL     0.0000 ****
13426 OIL   -42.659000   90.772000  -28.165000 O    5754 GOL     0.0000 ****
13427 OIL   -63.763000  -25.157000   -2.567000 O    5755 GOL     0.0000 ****
13428 OIL    27.032000  -87.454000    1.314000 O    5756 GOL     0.0000 ****
13429 OIL   -41.182000   22.837000   51.285000 O    5757 GOL     0.0000 ****
13430 OIL    97.385000  -16.024000   -8.518000 O    5758 GOL     0.0000 ****
13431 OIL   -80.013000   49.731000  -36.391000 O    5759 GOL     0.0000 ****
13432 OIL    32.410000   58.455000   64.656000 O    5760 GOL     0.0000 ****
13433 OIL     5.353000   34.469000  -91.890000 O    5761 GOL     0.0000 ****
13434 OIL   -23.156000  -41.519000   88.969000 O    5762 GOL     0.0000 ****
13435 OIL     8.035000   56.262000   57.255000 O    5763 GOL     0.0000 ****
13436 OIL   -50.976000  -12.060000   25.233000 O    5764 GOL     0.0000 ****
13437 OIL    13.134000   29.919000   96.312000 O    5765 GOL     0.0000 ****
13438 OIL    63.655000  -80.382000   17.050000 O    5766 GOL     0.0000 ****
13439 OIL   -10.797000   79.594000  -15.581000 O    5767 GOL     0.0000 ****
13440 OIL    44.716000  -20.402000  -70.909000 O    5768 GOL     0.0000 ****
13441 OIL     4.271000   48.622000   94.864000 O    5769 GOL     0.0000 ****
13442 OIL    13.971000   10.347000   73.285000 O    5770 GOL     0.0000 ****
13443 OIL   -66.879000   43.258000   16.117000 O    5771 GOL     0.0000 ****
13444 OIL   -33.423000   44.799000   49.340000 O    5772 GOL     0.0000 ****
13445 OIL   -15.283000  -16.112000  -79.530000 O    5773 GOL     0.0000 ****
13446 OIL   -63.439000    2.335000  -22.718000 O    5774 GOL     0.0000 ****
13447 OIL   -85.741000   21.755000  -34.734000 O    5775 GOL     0.0000 ****
13448 OIL   -27.850000  -62.700000  -35.537000 O    5776 GOL     0.0000 ****
13449 OIL   -94.341000    4.439000   12.958000 O    5777 GOL     0.0000 ****
13450 OIL    57.013000  -59.384000  -34.945000 O    5778 GOL     0.0000 ****
13451 OIL  -102.051000  -25.214000   -8.190000 O    5779 GOL     0.0000 ****
13452 OIL   -50.719000   72.377000  -14.410000 O    5780 GOL     0.0000 ****
13453 OIL   -48.836000   29.673000   43.246000 O    5781 GOL     0.0000 ****
13454 OIL    71.817000  -63.878000   -6.682000 O    5782 GOL     0.0000 ****
13455 OIL    71.535000   43.344000  -55.597000 O    5783 GOL     0.0000 ****
13456 OIL   -23.242000   78.897000   35.176000 O    5784 GOL     0.0000 ****
13457 OIL    85.563000    8.583000   57.150000 O    5785 GOL     0.0000 ****
13458 OIL   -43.560000   10.447000  -38.199000 O    5786 GOL     0.0000 ****
13459 OIL    69.697000  -50.359000   53.188000 O    5787 GOL     0.0000 ****
13460 OIL   -37.866000   19.336000   90.067000 O    5788 GOL     0.0000 ****
13461 OIL   -46.862000   -9.686000    8.695000 O    5789 GOL     0.0000 ****
13462 OIL   -75.679000  -12.501000   54.084000 O    5790 GOL     0.0000 ****
13463 OIL   -94.051000  -46.127000  -16.544000 O    5791 GOL     0.0000 ****
13464 OIL    80.484000  -66.609000   18.931000 O    5792 GOL     0.0000 ****
13465 OIL   -49.918000   72.390000   42.920000 O    5793 GOL     0.0000 ****
13466 OIL   -91.854000   29.097000  -35.466000 O    5794 GOL     0.0000 ****
13467 OIL   -62.050000  -20.188000   11.097000 O    5795 GOL     0.0000 ****
13468 OIL    -0.503000  -73.392000  -18.311000 O    5796 GOL     0.0000 ****
13469 OIL    28.077000   76.342000   46.843000 O    5797 GOL     0.0000 ****
13470 OIL    61.392000  -45.291000  -49.215000 O    5798 GOL     0.0000 ****
13471 OIL    60.954000   79.751000   22.791000 O    5799 GOL     0.0000 ****
13472 OIL    53.536000   83.325000   18.470000 O    5800 GOL     0.0000 ****
13473 OIL    32.068000  -85.224000  -43.548000 O    5801 GOL     0.0000 ****
13474 OIL     7.363000   62.659000   51.533000 O    5802 GOL     0.0000 ****
13475 OIL    65.959000   65.363000    5.156000 O    5803 GOL     0.0000 ****
13476 OIL    12.530000    6.041000   77.121000 O    5804 GOL     0.0000 ****
13477 OIL   -51.179000   34.745000   74.773000 O    5805 GOL     0.0000 ****
13478 OIL   -50.854000    4.032000  -27.056000 O    5806 GOL     0.0000 ****
13479 OIL   -31.953000  -85.786000  -30.072000 O    5807 GOL     0.0000 ****
13480 OIL    54.244000  -65.910000  -36.671000 O    5808 GOL     0.0000 ****
13481 OIL   -61.142000   -1.962000  -56.495000 O    5809 GOL     0.0000 ****
13482 OIL    58.560000  -78.537000   37.104000 O    5810 GOL     0.0000 ****
13483 OIL    15.723000   26.210000   77.070000 O    5811 GOL     0.0000 ****
13484 OIL   -73.408000   -2.511000   37.339000 O    5812 GOL     0.0000 ****
13485 OIL    99.536000  -21.272000    5.990000 O    5813 GOL     0.0000 ****
13486 OIL   -41.101000  -30.865000   80.897000 O    5814 GOL     0.0000 ****
13487 OIL    81.146000   51.523000  -46.806000 O    5815 GOL     0.0000 ****
13488 OIL   -34.461000  -23.565000   87.499000 O    5816 GOL     0.0000 ****
13489 OIL   -86.672000  -50.125000   16.325000 O    5817 GOL     0.0000 ****
13490 OIL   -53.918000   48.536000  -43.874000 O    5818 GOL     0.0000 ****
13491 OIL    46.211000  -34.214000   80.746000 O    5819 GOL     0.0000 ****
13492 OIL   -54.040000   66.308000  -15.461000 O    5820 GOL     0.0000 ****
13493 OIL   -21.121000  -13.095000  -92.365000 O    5821 GOL     0.0000 ****
13494 OIL    41.700000  -43.761000  -65.429000 O    5822 GOL     0.0000 ****
13495 OIL    -6.593000  -56.236000   78.101000 O    5823 GOL     0.0000 ****
13496 OIL   -46.572000   43.260000  -20.534000 O    5824 GOL     0.0000 ****
13497 OIL   -53.044000   41.798000  -77.516000 O    5825 GOL     0.0000 ****
13498 OIL   -87.846000  -35.984000  -41.860000 O    5826 GOL     0.0000 ****
13499 OIL   -82.688000   -8.684000  -18.761000 O    5827 GOL     0.0000 ****
13500 OIL    11.259000  -49.583000   68.289000 O    5828 GOL     0.0000 ****
13501 OIL   -23.024000   54.250000   24.971000 O    5829 GOL     0.0000 ****
13502 OIL   -33.316000  -58.637000   62.095000 O    5830 GOL     0.0000 ****
13503 OIL   -49.823000   24.781000   17.450000 O    5831 GOL     0.0000 ****
13504 OIL    -0.786000   45.390000  -82.533000 O    5832 GOL     0.0000 ****
13505 OIL   -17.913000   26.221000   87.668000 O    5833 GOL     0.0000 ****
13506 OIL   -44.044000  -34.645000  -21.524000 O    5834 GOL     0.0000 ****
13507 OIL    21.078000   40.860000  -83.333000 O    5835 GOL     0.0000 ****
13508 OIL   -82.363000  -22.125000  -47.647000 O    5836 GOL     0.0000 ****
13509 OIL    63.741000  -15.719000   60.702000 O    5837 GOL     0.0000 ****
13510 OIL    19.563000   94.543000   -1.919000 O    5838 GOL     0.0000 ****
13511 OIL    15.496000   70.536000  -44.534000 O    5839 GOL     0.0000 ****
13512 OIL   -55.233000  -49.598000  -46.204000 O    5840 GOL     0.0000 ****
13513 OIL   -20.796000   64.936000   29.269000 O    5841 GOL     0.0000 ****
13514 OIL    39.177000  -67.815000  -57.956000 O    5842 GOL     0.0000 ****
13515 OIL     0.310000   22.560000  100.781000 O    5843 GOL     0.0000 ****
13516 OIL   -62.113000   37.225000  -50.116000 O    5844 GOL     0.0000 ****
13517 OIL    25.557000  -51.022000  -63.637000 O    5845 GOL     0.0000 ****
13518 OIL   -94.651000   37.397000   25.782000 O    5846 GOL     0.0000 ****
13519 OIL    61.075000  -44.933000   57.544000 O    5847 GOL     0.0000 ****
13520 OIL   -86.474000  -44.921000  -41.290000 O    5848 GOL     0.0000 ****
13521 OIL   -68.840000   -9.280000  -25.747000 O    5849 GOL     0.0000 ****
13522 OIL   -59.583000   44.964000  -38.274000 O    5850 GOL     0.0000 ****
13523 OIL    39.935000   78.084000  -36.151000 O    5851 GOL     0.0000 ****
13524 OIL    46.958000  -80.424000   -3.575000 O    5852 GOL     0.0000 ****
13525 OIL   -98.452000    9.626000   31.727000 O    5853 GOL     0.0000 ****
13526 OIL   -72.990000   24.578000  -34.979000 O    5854 GOL     0.0000 ****
13527 OIL   -50.356000   23.462000  -42.922000 O    5855 GOL     0.0000 ****
13528 OIL    13.628000   66.489000  -63.089000 O    5856 GOL     0.0000 ****
13529 OIL   -29.670000  -58.048000   33.818000 O    5857 GOL     0.0000 ****
13530 OIL   -17.786000   75.743000   -0.435000 O    5858 GOL     0.0000 ****
13531 OIL    10.737000   71.791000   48.826000 O    5859 GOL     0.0000 ****
13532 OIL    -7.957000  -34.811000  -77.176000 O    5860 GOL     0.0000 ****
13533 OIL   -71.854000   67.247000   21.561000 O    5861 GOL     0.0000 ****
13534 OIL    13.579000   -1.896000   79.764000 O    5862 GOL     0.0000 ****
13535 OIL    29.151000  -93.336000    8.460000 O    5863 GOL     0.0000 ****
13536 OIL   -45.790000  -63.409000   58.904000 O    5864 GOL     0.0000 ****
13537 OIL    51.731000  -89.516000   17.805000 O    5865 GOL     0.0000 ****
13538 OIL   -42.332000   13.948000  -28.816000 O    5866 GOL     0.0000 ****
13539 OIL    85.896000  -51.605000  -13.220000 O    5867 GOL     0.0000 ****
13540 OIL   -74.735000   54.659000   53.308000 O    5868 GOL     0.0000 ****
13541 OIL   -17.006000   65.367000  -29.619000 O    5869 GOL     0.0000 ****
13542 OIL     0.622000   63.609000   41.096000 O    5870 GOL     0.0000 ****
13543 OIL   -62.591000   82.712000  -23.744000 O    5871 GOL     0.0000 ****
13544 OIL   -17.481000  -71.359000   64.624000 O    5872 GOL     0.0000 ****
13545 OIL    -1.116000  -75.861000   75.613000 O    5873 GOL     0.0000 ****
13546 OIL    50.765000  -70.481000  -17.623000 O    5874 GOL     0.0000 ****
13547 OIL     3.955000    0.637000   74.109000 O    5875 GOL     0.0000 ****
13548 OIL   -47.227000  -40.487000  -79.676000 O    5876 GOL     0.0000 ****
13549 OIL     3.047000   -4.063000   77.486000 O    5877 GOL     0.0000 ****
13550 OIL   -62.713000   21.212000   26.338000 O    5878 GOL     0.0000 ****
13551 OIL   -36.040000   39.512000  -81.445000 O    5879 GOL     0.0000 ****
13552 OIL   -64.481000   70.964000   -4.362000 O    5880 GOL     0.0000 ****
13553 OIL   -34.999000  -16.050000   49.383000 O    5881 GOL     0.0000 ****
13554 OIL    13.441000  -77.768000  -42.545000 O    5882 GOL     0.0000 ****
13555 OIL    35.107000    2.313000  100.175000 O    5883 GOL     0.0000 ****
13556 OIL   -97.192000   -8.465000   23.630000 O    5884 GOL     0.0000 ****
13557 OIL    80.111000  -51.844000   19.214000 O    5885 GOL     0.0000 ****
13558 OIL    94.521000  -18.111000   39.508000 O    5886 GOL     0.0000 ****
13559 OIL    -6.972000  -28.531000   87.681000 O    5887 GOL     0.0000 ****
13560 OIL   -92.023000   10.646000    9.539000 O    5888 GOL     0.0000 ****
13561 OIL   -22.967000   61.137000   52.244000 O    5889 GOL     0.0000 ****
13562 OIL   -23.600000   32.490000   68.805000 O    5890 GOL     0.0000 ****
13563 OIL   -68.217000  -17.878000  -34.571000 O    5891 GOL     0.0000 ****
13564 OIL    47.598000   72.691000   50.500000 O    5892 GOL     0.0000 ****
13565 OIL   -74.918000   13.828000  -17.066000 O    5893 GOL     0.0000 ****
13566 OIL   -72.587000  -18.241000   67.027000 O    5894 GOL     0.0000 ****
13567 OIL    30.140000   67.661000  -48.218000 O    5895 GOL     0.0000 ****
13568 OIL    97.392000  -21.401000   -5.051000 O    5896 GOL     0.0000 ****
13569 OIL   -57.263000  -74.760000   46.559000 O    5897 GOL     0.0000 ****
13570 OIL    -8.766000   86.348000   40.921000 O    5898 GOL     0.0000 ****
13571 OIL    38.194000   64.793000  -64.822000 O    5899 GOL     0.0000 ****
13572 OIL    59.220000  -26.788000  -68.909000 O    5900 GOL     0.0000 ****
13573 OIL    35.704000  -88.717000  -10.092000 O    5901 GOL     0.0000 ****
13574 OIL   -51.289000    8.609000  -21.263000 O    5902 GOL     0.0000 ****
13575 OIL   -41.973000   46.791000  -49.013000 O    5903 GOL     0.0000 ****
13576 OIL     6.855000   20.531000  -76.006000 O    5904 GOL     0.0000 ****
13577 OIL    73.388000  -25.336000  -58.075000 O    5905 GOL     0.0000 ****
13578 OIL   -69.752000   -9.709000   -9.011000 O    5906 GOL     0.0000 ****
13579 OIL     8.682000  -68.197000  -17.252000 O    5907 GOL     0.0000 ****
13580 OIL    28.996000  -47.714000   61.957000 O    5908 GOL     0.0000 ****
13581 OIL     8.627000  -54.701000  -73.280000 O    5909 GOL     0.0000 ****
13582 OIL    54.854000   10.226000  -79.490000 O    5910 GOL     0.0000 ****
13583 OIL    14.897000  -25.815000  -69.190000 O    5911 GOL     0.0000 ****
13584 OIL    50.511000   -6.474000  -77.265000 O    5912 GOL     0.0000 ****
13585 OIL   -40.082000   -6.898000  -68.575000 O    5913 GOL     0.0000 ****
13586 OIL   -32.522000   15.738000   75.721000 O    5914 GOL     0.0000 ****
13587 OIL   -91.066000  -27.595000    9.506000 O    5915 GOL     0.0000 ****
13588 OIL    37.808000   41.150000   77.218000 O    5916 GOL     0.0000 ****
13589 OIL   -71.429000   16.910000  -74.758000 O    5917 GOL     0.0000 ****
13590 OIL   -67.517000  -29.627000  -27.629000 O    5918 GOL     0.0000 ****
13591 OIL   -55.996000  -20.665000   83.436000 O    5919 GOL     0.0000 ****
13592 OIL    -3.728000   22.534000  -99.470000 O    5920 GOL     0.0000 ****
13593 OIL   -21.450000  -81.159000  -33.536000 O    5921 GOL     0.0000 ****
13594 OIL    56.009000  -61.727000  -55.345000 O    5922 GOL     0.0000 ****
13595 OIL   -66.184000   62.822000   44.125000 O    5923 GOL     0.0000 ****
13596 OIL    44.114000   70.136000  -42.931000 O    5924 GOL     0.0000 ****
13597 OIL   -73.693000  -56.797000   -8.123000 O    5925 GOL     0.0000 ****
13598 OIL   -32.296000   62.280000   40.855000 O    5926 GOL     0.0000 ****
13599 OIL   -64.839000   18.124000   -1.736000 O    5927 GOL     0.0000 ****
13600 OIL   -24.852000  -79.076000  -18.512000 O    5928 GOL     0.0000 ****
13601 OIL    36.602000    5.848000  -73.099000 O    5929 GOL     0.0000 ****
13602 OIL   -32.802000   76.956000   37.386000 O    5930 GOL     0.0000 ****
13603 OIL   -72.769000   50.283000  -18.381000 O    5931 GOL     0.0000 ****
13604 OIL    96.309000  -13.638000  -34.650000 O    5932 GOL     0.0000 ****
13605 OIL    16.724000  -60.167000   45.661000 O    5933 GOL     0.0000 ****
13606 OIL    81.371000   51.329000   -8.105000 O    5934 GOL     0.0000 ****
13607 OIL   -26.502000  -43.675000  -53.365000 O    5935 GOL     0.0000 ****
13608 OIL    41.047000   86.755000   29.400000 O    5936 GOL     0.0000 ****
13609 OIL    80.955000  -57.835000   29.074000 O    5937 GOL     0.0000 ****
13610 OIL   -83.115000   62.641000  -23.579000 O    5938 GOL     0.0000 ****
13611 OIL     8.870000   82.635000    7.157000 O    5939 GOL     0.0000 ****
13612 OIL    25.728000   94.658000  -29.465000 O    5940 GOL     0.0000 ****
13613 OIL   -25.367000  -21.601000  -86.689000 O    5941 GOL     0.0000 ****
13614 OIL   -79.950000  -36.839000   45.554000 O    5942 GOL     0.0000 ****
13615 OIL   -84.529000    5.447000  -19.191000 O    5943 GOL     0.0000 ****
13616 OIL    41.239000   80.459000  -15.004000 O    5944 GOL     0.0000 ****
13617 OIL     2.106000   92.382000   24.447000 O    5945 GOL     0.0000 ****
13618 OIL   -14.818000  -41.279000  -45.401000 O    5946 GOL     0.0000 ****
13619 OIL   -62.702000  -24.977000  -52.432000 O    5947 GOL     0.0000 ****
13620 OIL   -55.316000  -63.464000  -18.299000 O    5948 GOL     0.0000 ****
13621 OIL   -16.538000  -97.968000    4.546000 O    5949 GOL     0.0000 ****
13622 OIL   -46.154000   -0.281000   33.849000 O    5950 GOL     0.0000 ****
13623 OIL    39.822000  -32.613000  -89.603000 O    5951 GOL     0.0000 ****
13624 OIL   -85.172000  -42.827000   46.733000 O    5952 GOL     0.0000 ****
13625 OIL    60.553000   33.769000   63.343000 O    5953 GOL     0.0000 ****
13626 OIL   -62.564000  -45.575000  -20.663000 O    5954 GOL     0.0000 ****
13627 OIL   -25.780000   33.808000  -61.786000 O    5955 GOL     0.0000 ****
13628 OIL   -36.060000   44.361000   87.530000 O    5956 GOL     0.0000 ****
13629 OIL   -82.682000  -64.518000   -5.044000 O    5957 GOL     0.0000 ****
13630 OIL   -50.840000  -16.229000  -59.123000 O    5958 GOL     0.0000 ****
13631 OIL   -87.646000   53.525000   12.000000 O    5959 GOL     0.0000 ****
13632 OIL    24.054000  -37.651000  -95.680000 O    5960 GOL     0.0000 ****
13633 OIL   -63.081000   34.096000  -74.104000 O    5961 GOL     0.0000 ****
13634 OIL     5.962000  -70.752000   49.212000 O    5962 GOL     0.0000 ****
13635 OIL    41.845000   51.151000   77.956000 O    5963 GOL     0.0000 ****
13636 OIL   -15.792000   64.599000  -10.342000 O    5964 GOL     0.0000 ****
13637 OIL   -83.833000  -37.212000    6.473000 O    5965 GOL     0.0000 ****
13638 OIL    -4.921000   73.611000   31.080000 O    5966 GOL     0.0000 ****
13639 OIL   -87.041000  -25.387000  -25.545000 O    5967 GOL     0.0000 ****
13640 OIL    88.688000   47.421000  -32.375000 O    5968 GOL     0.0000 ****
13641 OIL    13.115000    9.478000 -101.177000 O    5969 GOL     0.0000 ****
13642 OIL   -62.161000   17.121000  -41.135000 O    5970 GOL     0.0000 ****
13643 OIL    18.959000   47.198000  -69.211000 O    5971 GOL     0.0000 ****
13644 OIL    50.377000  -29.672000  -76.626000 O    5972 GOL     0.0000 ****
13645 OIL   -43.482000  -74.050000  -28.773000 O    5973 GOL     0.0000 ****
13646 OIL   -17.529000   59.197000  -76.696000 O    5974 GOL     0.0000 ****
13647 OIL   -38.798000   19.839000   63.331000 O    5975 GOL     0.0000 ****
13648 OIL    15.033000  -53.736000   60.666000 O    5976 GOL     0.0000 ****
13649 OIL    48.686000  -81.083000   10.543000 O    5977 GOL     0.0000 ****
13650 OIL   -80.378000   14.410000   -9.733000 O    5978 GOL     0.0000 ****
13651 OIL   -65.948000   78.175000    8.653000 O    5979 GOL     0.0000 ****
13652 OIL    -7.700000   67.510000  -27.363000 O    5980 GOL     0.0000 ****
13653 OIL    -7.040000  -89.994000   45.771000 O    5981 GOL     0.0000 ****
13654 OIL    10.858000   97.415000    8.700000 O    5982 GOL     0.0000 ****
13655 OIL   -63.696000   -5.908000   54.568000 O    5983 GOL     0.0000 ****
13656 OIL   -15.821000  -75.918000   14.766000 O    5984 GOL     0.0000 ****
13657 OIL   -60.487000   -8.771000   52.624000 O    5985 GOL     0.0000 ****
13658 OIL    17.824000  -95.257000  -37.521000 O    5986 GOL     0.0000 ****
13659 OIL   -71.620000   -5.222000   46.176000 O    5987 GOL     0.0000 ****
13660 OIL    -6.081000  -59.899000  -44.178000 O    5988 GOL     0.0000 ****
13661 OIL   -68.931000   59.097000   -9.181000 O    5989 GOL     0.0000 ****
13662 OIL   -27.281000  -63.517000  -16.445000 O    5990 GOL     0.0000 ****
13663 OIL   -45.039000  -62.480000    9.334000 O    5991 GOL     0.0000 ****
13664 OIL    -3.422000 -104.174000   15.942000 O    5992 GOL     0.0000 ****
13665 OIL    98.774000  -22.319000  -15.503000 O    5993 GOL     0.0000 ****
13666 OIL    14.678000   74.546000   29.208000 O    5994 GOL     0.0000 ****
13667 OIL    20.768000  -29.858000  -85.068000 O    5995 GOL     0.0000 ****
13668 OIL     6.071000  -43.474000   87.881000 O    5996 GOL     0.0000 ****
13669 OIL   -13.520000   78.105000   57.298000 O    5997 GOL     0.0000 ****
13670 OIL   -43.969000   15.175000   90.431000 O    5998 GOL     0.0000 ****
13671 OIL    66.116000   28.628000  -59.449000 O    5999 GOL     0.0000 ****
13672 OIL   -49.308000   93.506000   -2.325000 O    6000 GOL     0.0000 ****
13673 OIL   -66.852000   24.221000  -49.486000 O    6001 GOL     0.0000 ****
13674 OIL   -20.470000  -66.165000   35.759000 O    6002 GOL     0.0000 ****
13675 OIL   -60.394000  -12.586000  -79.612000 O    6003 GOL     0.0000 ****
13676 OIL     2.705000   70.756000   52.565000 O    6004 GOL     0.0000 ****
13677 OIL   -24.728000  -91.850000  -33.249000 O    6005 GOL     0.0000 ****
13678 OIL   -71.719000   20.953000   37.139000 O    6006 GOL     0.0000 ****
13679 OIL    52.747000   78.923000    8.000000 O    6007 GOL     0.0000 ****
13680 OIL   -61.939000  -28.478000   41.717000 O    6008 GOL     0.0000 ****
13681 OIL   -43.122000   78.951000  -56.318000 O    6009 GOL     0.0000 ****
13682 OIL   -26.073000  -35.050000  -93.692000 O    6010 GOL     0.0000 ****
13683 OIL   -50.736000   78.278000   38.496000 O    6011 GOL     0.0000 ****
13684 OIL   -15.301000   46.737000  -90.430000 O    6012 GOL     0.0000 ****
13685 OIL   -47.946000   43.010000  -50.771000 O    6013 GOL     0.0000 ****
13686 OIL     8.552000  -98.488000  -15.969000 O    6014 GOL     0.0000 ****
13687 OIL   -41.516000   59.546000  -47.446000 O    6015 GOL     0.0000 ****
13688 OIL   -51.534000   21.600000   45.536000 O    6016 GOL     0.0000 ****
13689 OIL   -43.396000   81.114000  -23.475000 O    6017 GOL     0.0000 ****
13690 OIL   -61.543000  -75.536000   -9.331000 O    6018 GOL     0.0000 ****
13691 OIL   -28.832000  -67.765000   41.596000 O    6019 GOL     0.0000 ****
13692 OIL   -32.592000   53.660000    2.428000 O    6020 GOL     0.0000 ****
13693 OIL   -62.601000   20.074000   65.144000 O    6021 GOL     0.0000 ****
13694 OIL   -77.461000  -34.306000  -64.696000 O    6022 GOL     0.0000 ****
13695 OIL    87.118000   38.950000  -44.367000 O    6023 GOL     0.0000 ****
13696 OIL    -5.614000   43.349000  -91.213000 O    6024 GOL     0.0000 ****
13697 OIL   -26.310000  -92.964000   36.325000 O    6025 GOL     0.0000 ****
13698 OIL    52.797000   59.026000   49.247000 O    6026 GOL     0.0000 ****
13699 OIL    75.304000  -45.183000   60.525000 O    6027 GOL     0.0000 ****
13700 OIL   -80.124000   36.637000   56.043000 O    6028 GOL     0.0000 ****
13701 OIL   -47.605000   60.909000    9.534000 O    6029 GOL     0.0000 ****
13702 OIL   -60.832000   78.204000   -2.180000 O    6030 GOL     0.0000 ****
13703 OIL   -64.454000  -54.269000   42.427000 O    6031 GOL     0.0000 ****
13704 OIL    46.020000   26.280000  -82.486000 O    6032 GOL     0.0000 ****
13705 OIL   -42.431000  -61.325000  -33.605000 O    6033 GOL     0.0000 ****
13706 OIL    31.119000  -51.564000   73.703000 O    6034 GOL     0.0000 ****
13707 OIL   -17.942000  -74.055000   53.173000 O    6035 GOL     0.0000 ****
13708 OIL   -69.198000   30.217000  -72.947000 O    6036 GOL     0.0000 ****
13709 OIL    97.336000  -19.480000  -24.025000 O    6037 GOL     0.0000 ****
13710 OIL    19.580000   16.614000   72.445000 O    6038 GOL     0.0000 ****
13711 OIL   -39.335000  -40.385000   63.311000 O    6039 GOL     0.0000 ****
13712 OIL   -24.475000  -51.214000   81.424000 O    6040 GOL     0.0000 ****
13713 OIL    82.621000  -61.621000   16.900000 O    6041 GOL     0.0000 ****
13714 OIL   -96.831000  -27.745000  -26.269000 O    6042 GOL     0.0000 ****
13715 OIL    35.680000  -90.859000  -15.963000 O    6043 GOL     0.0000 ****
13716 OIL   -28.255000  -29.116000  -42.307000 O    6044 GOL     0.0000 ****
13717 OIL    14.505000  -22.497000  -96.471000 O    6045 GOL     0.0000 ****
13718 OIL    26.163000   -2.673000  -85.062000 O    6046 GOL     0.0000 ****
13719 OIL   -15.539000  -70.196000   50.059000 O    6047 GOL     0.0000 ****
13720 OIL   -19.501000  -45.365000   84.155000 O    6048 GOL     0.0000 ****
13721 OIL   -45.845000  -11.842000  -90.294000 O    6049 GOL     0.0000 ****
13722 OIL    43.860000   38.990000  -73.377000 O    6050 GOL     0.0000 ****
13723 OIL   -73.532000   27.201000   48.345000 O    6051 GOL     0.0000 ****
13724 OIL    38.717000  -63.177000   64.313000 O    6052 GOL     0.0000 ****
13725 OIL   -70.436000   -6.674000   15.628000 O    6053 GOL     0.0000 ****
13726 OIL   -44.188000  -58.123000   22.195000 O    6054 GOL     0.0000 ****
13727 OIL     0.998000   67.535000  -22.596000 O    6055 GOL     0.0000 ****
13728 OIL    17.505000   -2.538000   74.995000 O    6056 GOL     0.0000 ****
13729 OIL   -43.493000  -21.578000   38.278000 O    6057 GOL     0.0000 ****
13730 OIL    68.533000    2.387000   73.705000 O    6058 GOL     0.0000 ****
13731 OIL    -0.821000  -95.214000  -26.586000 O    6059 GOL     0.0000 ****
13732 OIL   -49.824000   48.840000  -58.083000 O    6060 GOL     0.0000 ****
13733 OIL    33.778000  -93.736000    1.121000 O    6061 GOL     0.0000 ****
13734 OIL   -54.124000   -8.056000   13.583000 O    6062 GOL     0.0000 ****
13735 OIL   -70.163000   13.231000  -54.765000 O    6063 GOL     0.0000 ****
13736 OIL   -94.882000  -13.156000  -20.063000 O    6064 GOL     0.0000 ****
13737 OIL   -26.688000  102.359000   -2.041000 O    6065 GOL     0.0000 ****
13738 OIL   -59.004000   19.623000   11.309000 O    6066 GOL     0.0000 ****
13739 OIL   -81.705000  -42.444000   35.036000 O    6067 GOL     0.0000 ****
13740 OIL   -27.264000   86.489000  -56.080000 O    6068 GOL     0.0000 ****
13741 OIL    36.023000  -91.660000  -11.758000 O    6069 GOL     0.0000 ****
13742 OIL    36.368000  -59.853000   54.759000 O    6070 GOL     0.0000 ****
13743 OIL   -23.084000  -34.052000   71.017000 O    6071 GOL     0.0000 ****
13744 OIL   -34.819000  -64.999000  -13.065000 O    6072 GOL     0.0000 ****
13745 OIL   -51.801000   26.237000  -25.407000 O    6073 GOL     0.0000 ****
13746 OIL   -72.467000   22.978000   15.849000 O    6074 GOL     0.0000 ****
13747 OIL   -22.479000   11.727000  100.201000 O    6075 GOL     0.0000 ****
13748 OIL   -48.270000  -19.345000   90.593000 O    6076 GOL     0.0000 ****
13749 OIL   -74.926000   51.056000  -31.397000 O    6077 GOL     0.0000 ****
13750 OIL   -23.280000  -83.938000   40.107000 O    6078 GOL     0.0000 ****
13751 OIL   -40.303000   53.952000    1.159000 O    6079 GOL     0.0000 ****
13752 OIL   -68.659000   57.766000  -37.957000 O    6080 GOL     0.0000 ****
13753 OIL   -13.668000  -63.983000  -17.657000 O    6081 GOL     0.0000 ****
13754 OIL   -51.853000    9.024000   38.796000 O    6082 GOL     0.0000 ****
13755 OIL   -95.863000    7.663000  -33.895000 O    6083 GOL     0.0000 ****
13756 OIL   -56.050000  -45.747000   75.514000 O    6084 GOL     0.0000 ****
13757 OIL    40.155000  -62.885000   34.860000 O    6085 GOL     0.0000 ****
13758 OIL    28.780000  -56.041000   78.236000 O    6086 GOL     0.0000 ****
13759 OIL    -0.422000  -39.906000  -63.761000 O    6087 GOL     0.0000 ****
13760 OIL    -6.721000   65.126000   65.289000 O    6088 GOL     0.0000 ****
13761 OIL    37.804000  -76.598000   48.074000 O    6089 GOL     0.0000 ****
13762 OIL   -56.355000   -6.870000   82.094000 O    6090 GOL     0.0000 ****
13763 OIL    21.064000   56.551000  -61.444000 O    6091 GOL     0.0000 ****
13764 OIL   -59.162000   29.324000  -71.997000 O    6092 GOL     0.0000 ****
13765 OIL   -42.155000  -53.471000   25.106000 O    6093 GOL     0.0000 ****
13766 OIL   -97.072000   27.391000   14.252000 O    6094 GOL     0.0000 ****
13767 OIL    16.702000    9.663000  -73.192000 O    6095 GOL     0.0000 ****
13768 OIL  -101.143000   19.507000   -9.611000 O    6096 GOL     0.0000 ****
13769 OIL   -47.346000   31.741000   85.308000 O    6097 GOL     0.0000 ****
13770 OIL   -29.145000   52.251000   33.519000 O    6098 GOL     0.0000 ****
13771 OIL   -58.925000    3.631000   63.261000 O    6099 GOL     0.0000 ****
13772 OIL     7.001000  -94.540000  -32.438000 O    6100 GOL     0.0000 ****
13773 OIL     0.833000   35.797000   76.139000 O    6101 GOL     0.0000 ****
13774 OIL    -2.812000   69.359000   46.673000 O    6102 GOL     0.0000 ****
13775 OIL   -31.927000   52.239000  -49.245000 O    6103 GOL     0.0000 ****
13776 OIL   -16.454000    2.762000  -71.534000 O    6104 GOL     0.0000 ****
13777 OIL   -44.253000  -42.707000   60.183000 O    6105 GOL     0.0000 ****
13778 OIL   -67.894000   44.870000   30.894000 O    6106 GOL     0.0000 ****
13779 OIL   -35.816000  -31.390000   57.305000 O    6107 GOL     0.0000 ****
13780 OIL     9.545000   37.971000   74.184000 O    6108 GOL     0.0000 ****
13781 OIL    21.175000   84.296000  -50.188000 O    6109 GOL     0.0000 ****
13782 OIL    67.080000  -41.311000   71.899000 O    6110 GOL     0.0000 ****
13783 OIL    -5.608000   67.810000  -72.064000 O    6111 GOL     0.0000 ****
13784 OIL    12.627000   63.545000   49.745000 O    6112 GOL     0.0000 ****
13785 OIL   -28.850000  -12.986000   84.343000 O    6113 GOL     0.0000 ****
13786 OIL    22.113000  -82.952000   -2.990000 O    6114 GOL     0.0000 ****
13787 OIL   -80.519000   12.626000   58.260000 O    6115 GOL     0.0000 ****
13788 OIL   -79.218000   46.974000    3.328000 O    6116 GOL     0.0000 ****
13789 OIL   -73.515000   -9.325000   60.587000 O    6117 GOL     0.0000 ****
13790 OIL    33.159000  -87.093000    9.228000 O    6118 GOL     0.0000 ****
13791 OIL    26.383000  -89.181000  -20.345000 O    6119 GOL     0.0000 ****
13792 OIL    -3.412000  -15.070000  -75.292000 O    6120 GOL     0.0000 ****
13793 OIL   -72.028000   12.558000   61.926000 O    6121 GOL     0.0000 ****
13794 OIL    96.948000  -36.031000  -11.517000 O    6122 GOL     0.0000 ****
13795 OIL    16.614000  -52.099000  -71.207000 O    6123 GOL     0.0000 ****
13796 OIL    -4.969000   84.849000  -16.662000 O    6124 GOL     0.0000 ****
13797 OIL     8.332000  -66.527000   24.626000 O    6125 GOL     0.0000 ****
13798 OIL   -36.124000  -89.693000   10.744000 O    6126 GOL     0.0000 ****
13799 OIL    10.970000  -98.580000  -24.754000 O    6127 GOL     0.0000 ****
13800 OIL    65.687000   43.807000  -60.072000 O    6128 GOL     0.0000 ****
13801 OIL   -52.177000  -26.038000  -88.690000 O    6129 GOL     0.0000 ****
13802 OIL    53.843000   89.555000   13.812000 O    6130 GOL     0.0000 ****
13803 OIL     7.560000   53.018000   82.849000 O    6131 GOL     0.0000 ****
13804 OIL    53.881000   85.934000   19.846000 O    6132 GOL     0.0000 ****
13805 OIL    82.970000  -67.473000    2.281000 O    6133 GOL     0.0000 ****
13806 OIL   -60.385000   23.847000  -28.015000 O    6134 GOL     0.0000 ****
13807 OIL     8.879000   61.115000   64.352000 O    6135 GOL     0.0000 ****
13808 OIL    47.154000  -20.612000   81.732000 O    6136 GOL     0.0000 ****
13809 OIL     1.541000   62.666000   61.140000 O    6137 GOL     0.0000 ****
13810 OIL   -42.874000  -65.811000    3.877000 O    6138 GOL     0.0000 ****
13811 OIL   -54.970000   -2.463000  -88.900000 O    6139 GOL     0.0000 ****
13812 OIL   -20.293000  -71.111000  -14.323000 O    6140 GOL     0.0000 ****
13813 OIL   -33.535000  -93.633000    3.483000 O    6141 GOL     0.0000 ****
13814 OIL   -23.714000   96.244000   40.803000 O    6142 GOL     0.0000 ****
13815 OIL   -76.149000    9.650000   53.145000 O    6143 GOL     0.0000 ****
13816 OIL   -50.246000  -24.039000    2.486000 O    6144 GOL     0.0000 ****
13817 OIL   -67.264000   44.371000  -13.821000 O    6145 GOL     0.0000 ****
13818 OIL   -17.138000  -19.953000   95.525000 O    6146 GOL     0.0000 ****
13819 OIL    55.946000  -48.938000   55.418000 O    6147 GOL     0.0000 ****
13820 OIL   -56.200000  -22.296000   24.836000 O    6148 GOL     0.0000 ****
13821 OIL   -40.495000   24.132000  -62.911000 O    6149 GOL     0.0000 ****
13822 OIL   -14.562000  -51.583000   72.382000 O    6150 GOL     0.0000 ****
13823 OIL    78.081000  -43.908000  -33.315000 O    6151 GOL     0.0000 ****
13824 OIL     9.318000  -41.132000  -71.441000 O    6152 GOL     0.0000 ****
13825 OIL   -62.150000   61.788000  -10.614000 O    6153 GOL     0.0000 ****
13826 OIL    29.290000  -32.246000   96.427000 O    6154 GOL     0.0000 ****
13827 OIL   -18.792000  -20.484000  -95.269000 O    6155 GOL     0.0000 ****
13828 OIL   -50.965000   18.113000   26.517000 O    6156 GOL     0.0000 ****
13829 OIL    83.990000  -56.484000  -10.274000 O    6157 GOL     0.0000 ****
13830 OIL    44.607000  -82.699000  -18.251000 O    6158 GOL     0.0000 ****
13831 OIL   -74.834000   67.998000   -1.649000 O    6159 GOL     0.0000 ****
13832 OIL   -71.608000    1.962000  -37.754000 O    6160 GOL     0.0000 ****
13833 OIL   -39.448000  -38.542000   35.889000 O    6161 GOL     0.0000 ****
13834 OIL    92.001000    6.183000   37.747000 O    6162 GOL     0.0000 ****
13835 OIL    54.754000   38.906000   57.532000 O    6163 GOL     0.0000 ****
13836 OIL     0.807000   99.733000   22.908000 O    6164 GOL     0.0000 ****
13837 OIL     0.800000   47.494000   73.481000 O    6165 GOL     0.0000 ****
13838 OIL    36.376000   65.581000   70.115000 O    6166 GOL     0.0000 ****
13839 OIL   -45.792000   32.718000  -82.205000 O    6167 GOL     0.0000 ****
13840 OIL    12.761000   90.589000  -36.925000 O    6168 GOL     0.0000 ****
13841 OIL   -53.389000   90.100000   -7.041000 O    6169 GOL     0.0000 ****
13842 OIL    88.541000   18.077000   43.856000 O    6170 GOL     0.0000 ****
13843 OIL   -47.173000   91.197000  -30.667000 O    6171 GOL     0.0000 ****
13844 OIL   -52.485000   10.681000  -50.917000 O    6172 GOL     0.0000 ****
13845 OIL   -80.197000  -32.318000   37.515000 O    6173 GOL     0.0000 ****
13846 OIL     0.756000  -73.803000  -66.466000 O    6174 GOL     0.0000 ****
13847 OIL   -97.322000   18.999000   -6.307000 O    6175 GOL     0.0000 ****
13848 OIL   -34.587000   81.485000  -55.808000 O    6176 GOL     0.0000 ****
13849 OIL    28.508000   91.418000  -45.751000 O    6177 GOL     0.0000 ****
13850 OIL   -58.186000  -46.471000  -70.951000 O    6178 GOL     0.0000 ****
13851 OIL   -12.610000  -90.995000    1.266000 O    6179 GOL     0.0000 ****
13852 OIL    24.771000  -81.410000  -13.678000 O    6180 GOL     0.0000 ****
13853 OIL    10.884000   68.029000  -28.776000 O    6181 GOL     0.0000 ****
13854 OIL   -16.696000   57.340000  -43.271000 O    6182 GOL     0.0000 ****
13855 OIL    -5.532000  -75.985000  -15.652000 O    6183 GOL     0.0000 ****
13856 OIL   -38.306000   31.492000   20.453000 O    6184 GOL     0.0000 ****
13857 OIL    92.505000   30.303000   40.144000 O    6185 GOL     0.0000 ****
13858 OIL   -73.896000    2.705000   42.634000 O    6186 GOL     0.0000 ****
13859 OIL    41.714000   28.697000  -84.311000 O    6187 GOL     0.0000 ****
13860 OIL   -41.622000  -25.149000  -31.335000 O    6188 GOL     0.0000 ****
13861 OIL     8.974000   75.038000  -65.393000 O    6189 GOL     0.0000 ****
13862 OIL   -71.378000  -46.655000    2.473000 O    6190 GOL     0.0000 ****
13863 OIL   -30.369000   34.742000   63.138000 O    6191 GOL     0.0000 ****
13864 OIL   -46.037000  -73.188000   30.479000 O    6192 GOL     0.0000 ****
13865 OIL   -38.608000  -11.545000   81.530000 O    6193 GOL     0.0000 ****
13866 OIL    48.173000   58.623000  -62.201000 O    6194 GOL     0.0000 ****
13867 OIL   -78.848000  -22.638000   51.315000 O    6195 GOL     0.0000 ****
13868 OIL   -77.606000  -45.674000   17.504000 O    6196 GOL     0.0000 ****
13869 OIL    17.211000  102.395000  -11.097000 O    6197 GOL     0.0000 ****
13870 OIL   -41.452000   46.651000   69.243000 O    6198 GOL     0.0000 ****
13871 OIL   -39.373000   67.738000   53.472000 O    6199 GOL     0.0000 ****
13872 OIL    93.025000   40.212000  -27.628000 O    6200 GOL     0.0000 ****
13873 OIL   -65.227000   36.482000  -17.375000 O    6201 GOL     0.0000 ****
13874 OIL   -65.237000   31.385000   21.618000 O    6202 GOL     0.0000 ****
13875 OIL   -24.383000   66.493000  -22.038000 O    6203 GOL     0.0000 ****
13876 OIL     8.620000  -34.847000  -73.794000 O    6204 GOL     0.0000 ****
13877 OIL   -11.479000  -82.038000  -59.581000 O    6205 GOL     0.0000 ****
13878 OIL   -43.401000  -50.296000  -12.060000 O    6206 GOL     0.0000 ****
13879 OIL   -86.201000  -53.892000    9.728000 O    6207 GOL     0.0000 ****
13880 OIL    34.474000   56.888000  -70.129000 O    6208 GOL     0.0000 ****
13881 OIL     8.669000   53.198000   57.408000 O    6209 GOL     0.0000 ****
13882 OIL   -53.253000   68.217000   31.072000 O    6210 GOL     0.0000 ****
13883 OIL   -97.864000  -28.486000   22.410000 O    6211 GOL     0.0000 ****
13884 OIL   -10.616000  -81.354000  -36.945000 O    6212 GOL     0.0000 ****
13885 OIL    77.421000   50.783000   47.349000 O    6213 GOL     0.0000 ****
13886 OIL   -51.444000   12.855000  -47.369000 O    6214 GOL     0.0000 ****
13887 OIL   -39.783000  -33.983000  -76.025000 O    6215 GOL     0.0000 ****
13888 OIL   -74.635000  -30.080000   29.842000 O    6216 GOL     0.0000 ****
13889 OIL    -3.719000   98.593000   28.603000 O    6217 GOL     0.0000 ****
13890 OIL   -55.524000   65.853000  -54.229000 O    6218 GOL     0.0000 ****
13891 OIL   -90.426000   -9.737000   39.471000 O    6219 GOL     0.0000 ****
13892 OIL   -91.730000   24.002000  -32.521000 O    6220 GOL     0.0000 ****
13893 OIL    53.622000   49.747000  -56.930000 O    6221 GOL     0.0000 ****
13894 OIL    71.016000   67.895000  -40.162000 O    6222 GOL     0.0000 ****
13895 OIL   -32.160000   36.239000   51.725000 O    6223 GOL     0.0000 ****
13896 OIL   -35.051000   76.194000    4.656000 O    6224 GOL     0.0000 ****
13897 OIL   -22.355000   29.896000   72.996000 O    6225 GOL     0.0000 ****
13898 OIL     6.495000  -50.598000  -62.479000 O    6226 GOL     0.0000 ****
13899 OIL    -8.690000   74.467000  -59.811000 O    6227 GOL     0.0000 ****
13900 OIL    47.906000   17.409000  -92.071000 O    6228 GOL     0.0000 ****
13901 OIL    40.403000  -46.864000  -54.414000 O    6229 GOL     0.0000 ****
13902 OIL   -33.715000   19.982000   63.995000 O    6230 GOL     0.0000 ****
13903 OIL   -72.546000   58.382000   -1.350000 O    6231 GOL     0.0000 ****
13904 OIL   -81.002000  -38.204000   41.076000 O    6232 GOL     0.0000 ****
13905 OIL    -9.662000   33.032000  -82.525000 O    6233 GOL     0.0000 ****
13906 OIL    63.003000  -39.860000   65.027000 O    6234 GOL     0.0000 ****
13907 OIL   -14.202000  -58.980000  -24.246000 O    6235 GOL     0.0000 ****
13908 OIL   -81.039000   16.223000   -2.135000 O    6236 GOL     0.0000 ****
13909 OIL    24.572000  -62.864000  -61.868000 O    6237 GOL     0.0000 ****
13910 OIL    71.609000   56.339000   44.691000 O    6238 GOL     0.0000 ****
13911 OIL   -53.921000   73.430000   43.835000 O    6239 GOL     0.0000 ****
13912 OIL   -32.745000   -8.673000  -52.731000 O    6240 GOL     0.0000 ****
13913 OIL    -0.368000   96.395000   -2.953000 O    6241 GOL     0.0000 ****
13914 OIL    33.884000  -43.692000  -78.452000 O    6242 GOL     0.0000 ****
13915 OIL   -23.665000   61.419000  -74.856000 O    6243 GOL     0.0000 ****
13916 OIL   -22.006000  -13.002000   57.180000 O    6244 GOL     0.0000 ****
13917 OIL   104.504000   -2.088000    6.869000 O    6245 GOL     0.0000 ****
13918 OIL   -29.682000  -54.982000   32.317000 O    6246 GOL     0.0000 ****
13919 OIL    23.659000   74.616000    6.276000 O    6247 GOL     0.0000 ****
13920 OIL     4.791000  -17.746000   71.317000 O    6248 GOL     0.0000 ****
13921 OIL   -44.093000   60.552000   63.704000 O    6249 GOL     0.0000 ****
13922 OIL     2.722000  -71.392000   31.305000 O    6250 GOL     0.0000 ****
13923 OIL   -58.642000   58.015000  -29.202000 O    6251 GOL     0.0000 ****
13924 OIL   -52.959000   35.007000   17.253000 O    6252 GOL     0.0000 ****
13925 OIL   -44.242000  -44.561000   74.102000 O    6253 GOL     0.0000 ****
13926 OIL   -27.538000  -34.461000  -82.127000 O    6254 GOL     0.0000 ****
13927 OIL    15.620000  -88.512000   -8.311000 O    6255 GOL     0.0000 ****
13928 OIL    36.127000  -73.539000  -41.171000 O    6256 GOL     0.0000 ****
13929 OIL    79.147000   51.063000   14.821000 O    6257 GOL     0.0000 ****
13930 OIL    53.559000  -13.059000  -74.457000 O    6258 GOL     0.0000 ****
13931 OIL   -58.931000   10.705000   47.939000 O    6259 GOL     0.0000 ****
13932 OIL    -5.990000  -47.162000   49.723000 O    6260 GOL     0.0000 ****
13933 OIL    16.366000  -81.068000   20.869000 O    6261 GOL     0.0000 ****
13934 OIL   -35.763000   65.537000   -9.601000 O    6262 GOL     0.0000 ****
13935 OIL   -13.796000   64.260000    8.481000 O    6263 GOL     0.0000 ****
13936 OIL    66.146000   13.571000   61.242000 O    6264 GOL     0.0000 ****
13937 OIL   -12.940000    6.183000 -105.239000 O    6265 GOL     0.0000 ****
13938 OIL    37.662000   48.685000   75.332000 O    6266 GOL     0.0000 ****
13939 OIL    -9.907000   39.973000   50.174000 O    6267 GOL     0.0000 ****
13940 OIL   -71.065000   -3.472000  -51.562000 O    6268 GOL     0.0000 ****
13941 OIL   -82.557000   -0.766000   49.163000 O    6269 GOL     0.0000 ****
13942 OIL   -64.910000   -9.805000  -54.873000 O    6270 GOL     0.0000 ****
13943 OIL    29.884000   12.054000  -75.414000 O    6271 GOL     0.0000 ****
13944 OIL   -60.052000   35.878000   20.975000 O    6272 GOL     0.0000 ****
13945 OIL    36.455000  -76.979000  -55.333000 O    6273 GOL     0.0000 ****
13946 OIL    -8.028000  -65.767000    2.012000 O    6274 GOL     0.0000 ****
13947 OIL   -86.232000   46.869000   28.143000 O    6275 GOL     0.0000 ****
13948 OIL     3.874000   88.524000   15.653000 O    6276 GOL     0.0000 ****
13949 OIL    60.378000   69.062000  -11.625000 O    6277 GOL     0.0000 ****
13950 OIL    46.989000   72.498000  -44.032000 O    6278 GOL     0.0000 ****
13951 OIL   -43.699000   13.055000   81.762000 O    6279 GOL     0.0000 ****
13952 OIL   -42.771000  -32.847000   39.652000 O    6280 GOL     0.0000 ****
13953 OIL   -51.157000   -2.769000  -20.115000 O    6281 GOL     0.0000 ****
13954 OIL   -83.519000   42.819000   34.331000 O    6282 GOL     0.0000 ****
13955 OIL   -39.151000   39.230000   33.326000 O    6283 GOL     0.0000 ****
13956 OIL   -78.866000   14.384000   49.204000 O    6284 GOL     0.0000 ****
13957 OIL   -76.136000  -14.733000    2.500000 O    6285 GOL     0.0000 ****
13958 OIL    41.051000   46.855000   66.977000 O    6286 GOL     0.0000 ****
13959 OIL   -78.911000  -51.048000   13.931000 O    6287 GOL     0.0000 ****
13960 OIL   -59.276000   12.931000   67.559000 O    6288 GOL     0.0000 ****
13961 OIL   -88.012000   33.419000   23.098000 O    6289 GOL     0.0000 ****
13962 OIL     7.462000   78.562000   62.075000 O    6290 GOL     0.0000 ****
13963 OIL   -12.880000   33.303000   71.590000 O    6291 GOL     0.0000 ****
13964 OIL   -64.575000  -26.785000  -74.491000 O    6292 GOL     0.0000 ****
13965 OIL     3.572000  -40.094000  -97.728000 O    6293 GOL     0.0000 ****
13966 OIL    18.205000   20.037000   69.677000 O    6294 GOL     0.0000 ****
13967 OIL    23.371000  -92.175000  -25.325000 O    6295 GOL     0.0000 ****
13968 OIL   -13.730000   -6.737000   65.518000 O    6296 GOL     0.0000 ****
13969 OIL   -56.820000   57.765000   19.164000 O    6297 GOL     0.0000 ****
13970 OIL    27.401000  -94.066000  -34.014000 O    6298 GOL     0.0000 ****
13971 OIL   -36.564000  -59.394000   18.774000 O    6299 GOL     0.0000 ****
13972 OIL   -74.099000  -62.454000    8.693000 O    6300 GOL     0.0000 ****
13973 OIL   -20.992000  -43.590000  -66.672000 O    6301 GOL     0.0000 ****
13974 OIL    52.857000   37.188000   85.741000 O    6302 GOL     0.0000 ****
13975 OIL    61.312000  -42.784000   56.763000 O    6303 GOL     0.0000 ****
13976 OIL     8.911000  -57.304000   81.178000 O    6304 GOL     0.0000 ****
13977 OIL   -81.381000   32.649000  -54.221000 O    6305 GOL     0.0000 ****
13978 OIL   -33.100000  -44.924000   48.193000 O    6306 GOL     0.0000 ****
13979 OIL    22.433000   92.902000   -9.778000 O    6307 GOL     0.0000 ****
13980 OIL   -95.956000  -25.822000   12.837000 O    6308 GOL     0.0000 ****
13981 OIL    69.699000  -20.038000   58.577000 O    6309 GOL     0.0000 ****
13982 OIL    26.593000    2.560000  -87.836000 O    6310 GOL     0.0000 ****
13983 OIL   -48.648000    3.674000  -75.547000 O    6311 GOL     0.0000 ****
13984 OIL    53.385000    6.019000   89.032000 O    6312 GOL     0.0000 ****
13985 OIL   -15.057000   77.231000   56.353000 O    6313 GOL     0.0000 ****
13986 OIL   -91.186000  -12.943000   53.849000 O    6314 GOL     0.0000 ****
13987 OIL    23.646000   71.528000   20.427000 O    6315 GOL     0.0000 ****
13988 OIL    25.062000   32.329000  -71.046000 O    6316 GOL     0.0000 ****
13989 OIL   -14.163000   55.392000   75.837000 O    6317 GOL     0.0000 ****
13990 OIL   -79.293000  -42.674000    1.137000 O    6318 GOL     0.0000 ****
13991 OIL   -64.670000   84.551000    4.512000 O    6319 GOL     0.0000 ****
13992 OIL    16.616000  -59.347000  -57.047000 O    6320 GOL     0.0000 ****
13993 OIL   -20.766000   54.289000  -25.182000 O    6321 GOL     0.0000 ****
13994 OIL     8.388000   71.292000  -45.086000 O    6322 GOL     0.0000 ****
13995 OIL   -53.361000  -20.322000  -40.999000 O    6323 GOL     0.0000 ****
13996 OIL    66.936000  -60.681000  -34.290000 O    6324 GOL     0.0000 ****
13997 OIL   -13.836000   93.123000   18.266000 O    6325 GOL     0.0000 ****
13998 OIL    -9.567000  -55.974000   67.039000 O    6326 GOL     0.0000 ****
13999 OIL   -55.447000  -27.916000   -3.092000 O    6327 GOL     0.0000 ****
14000 OIL   -27.167000  -36.985000   53.276000 O    6328 GOL     0.0000 ****
14001 OIL    29.688000  -65.926000  -57.654000 O    6329 GOL     0.0000 ****
14002 OIL    59.946000  -35.501000  -57.854000 O    6330 GOL     0.0000 ****
14003 OIL   -69.249000  -58.912000  -11.247000 O    6331 GOL     0.0000 ****
14004 OIL   -89.687000  -25.511000   50.899000 O    6332 GOL     0.0000 ****
14005 OIL    61.539000  -24.889000  -65.865000 O    6333 GOL     0.0000 ****
14006 OIL   -36.769000  -71.444000   40.737000 O    6334 GOL     0.0000 ****
14007 OIL   -60.132000  -21.480000   82.116000 O    6335 GOL     0.0000 ****
14008 OIL   -42.790000   -6.216000   43.222000 O    6336 GOL     0.0000 ****
14009 OIL   -34.965000   48.135000  -36.432000 O    6337 GOL     0.0000 ****
14010 OIL   -13.476000  -73.768000  -15.180000 O    6338 GOL     0.0000 ****
14011 OIL   -92.508000   26.116000   23.430000 O    6339 GOL     0.0000 ****
14012 OIL   -54.448000  -47.638000   -5.272000 O    6340 GOL     0.0000 ****
14013 OIL   -35.347000   -9.270000  -74.362000 O    6341 GOL     0.0000 ****
14014 OIL   -19.774000  -19.488000  -58.677000 O    6342 GOL     0.0000 ****
14015 OIL    39.639000   61.476000   63.454000 O    6343 GOL     0.0000 ****
14016 OIL    26.730000  -39.604000   71.772000 O    6344 GOL     0.0000 ****
14017 OIL    31.941000   87.938000    8.151000 O    6345 GOL     0.0000 ****
14018 OIL    21.753000   35.158000  -66.237000 O    6346 GOL     0.0000 ****
14019 OIL    81.466000   61.713000  -22.364000 O    6347 GOL     0.0000 ****
14020 OIL   -14.929000  -67.549000  -76.054000 O    6348 GOL     0.0000 ****
14021 OIL   -44.072000  -65.605000  -58.929000 O    6349 GOL     0.0000 ****
14022 OIL   -41.898000   54.486000  -26.203000 O    6350 GOL     0.0000 ****
14023 OIL     7.006000  -91.544000  -27.399000 O    6351 GOL     0.0000 ****
14024 OIL   -10.942000   70.863000    1.223000 O    6352 GOL     0.0000 ****
14025 OIL   -41.346000  -58.824000  -24.663000 O    6353 GOL     0.0000 ****
14026 OIL   -83.215000   -2.497000   13.576000 O    6354 GOL     0.0000 ****
14027 OIL    15.352000  -99.674000    7.292000 O    6355 GOL     0.0000 ****
14028 OIL   -52.201000   85.991000   21.735000 O    6356 GOL     0.0000 ****
14029 OIL   -34.298000  -63.954000   -9.208000 O    6357 GOL     0.0000 ****
14030 OIL     9.523000    8.435000  -93.576000 O    6358 GOL     0.0000 ****
14031 OIL   -88.503000    9.047000   20.399000 O    6359 GOL     0.0000 ****
14032 OIL    38.758000  -75.383000   28.545000 O    6360 GOL     0.0000 ****
14033 OIL   -86.778000  -46.802000    1.817000 O    6361 GOL     0.0000 ****
14034 OIL    10.935000  105.221000  -18.456000 O    6362 GOL     0.0000 ****
14035 OIL   -66.122000  -32.404000   17.003000 O    6363 GOL     0.0000 ****
14036 OIL   -47.226000  -20.007000  -58.154000 O    6364 GOL     0.0000 ****
14037 OIL   -89.717000   44.886000    4.053000 O    6365 GOL     0.0000 ****
14038 OIL   -57.208000   47.212000    3.212000 O    6366 GOL     0.0000 ****
14039 OIL   -48.733000  -29.075000  -11.738000 O    6367 GOL     0.0000 ****
14040 OIL    46.903000   26.843000  -90.055000 O    6368 GOL     0.0000 ****
14041 OIL   -41.475000  -55.669000   41.878000 O    6369 GOL     0.0000 ****
14042 OIL   -57.277000   27.069000  -53.347000 O    6370 GOL     0.0000 ****
14043 OIL   -57.031000   56.678000   51.337000 O    6371 GOL     0.0000 ****
14044 OIL   -15.484000   87.141000   -4.791000 O    6372 GOL     0.0000 ****
14045 OIL   -68.456000   38.786000   69.783000 O    6373 GOL     0.0000 ****
14046 OIL   -52.638000  -24.098000   45.616000 O    6374 GOL     0.0000 ****
14047 OIL    44.211000  -65.548000  -27.113000 O    6375 GOL     0.0000 ****
14048 OIL   -35.262000   81.088000   -5.398000 O    6376 GOL     0.0000 ****
14049 OIL   -31.104000   98.259000    6.896000 O    6377 GOL     0.0000 ****
14050 OIL   -37.268000   94.348000   -6.726000 O    6378 GOL     0.0000 ****
14051 OIL   -44.653000  -40.920000  -72.096000 O    6379 GOL     0.0000 ****
14052 OIL    56.569000    7.007000   73.446000 O    6380 GOL     0.0000 ****
14053 OIL   -87.691000  -50.718000   31.344000 O    6381 GOL     0.0000 ****
14054 OIL   -15.832000   69.637000  -56.183000 O    6382 GOL     0.0000 ****
14055 OIL     2.998000   22.967000   70.658000 O    6383 GOL     0.0000 ****
14056 OIL   -98.457000  -13.791000   34.504000 O    6384 GOL     0.0000 ****
14057 OIL   -68.597000   -8.496000  -54.483000 O    6385 GOL     0.0000 ****
14058 OIL    46.673000   82.245000   17.991000 O    6386 GOL     0.0000 ****
14059 OIL    40.526000   -4.138000   98.247000 O    6387 GOL     0.0000 ****
14060 OIL   -55.628000   37.649000   24.011000 O    6388 GOL     0.0000 ****
14061 OIL    10.227000  -53.685000  -84.541000 O    6389 GOL     0.0000 ****
14062 OIL   -49.065000  -51.360000  -28.159000 O    6390 GOL     0.0000 ****
14063 OIL   -49.777000  -63.820000    2.952000 O    6391 GOL     0.0000 ****
14064 OIL   -12.714000  -17.276000   80.633000 O    6392 GOL     0.0000 ****
14065 OIL    61.635000   68.252000  -21.061000 O    6393 GOL     0.0000 ****
14066 OIL   -40.139000   68.273000  -40.564000 O    6394 GOL     0.0000 ****
14067 OIL   -27.598000  -60.331000   20.832000 O    6395 GOL     0.0000 ****
14068 OIL    22.445000  -91.426000   -8.204000 O    6396 GOL     0.0000 ****
14069 OIL   -60.131000  -36.780000   75.231000 O    6397 GOL     0.0000 ****
14070 OIL   -63.783000  -28.989000  -69.088000 O    6398 GOL     0.0000 ****
14071 OIL   -43.205000  -38.329000  -29.668000 O    6399 GOL     0.0000 ****
14072 OIL    37.485000  -49.927000   54.793000 O    6400 GOL     0.0000 ****
14073 OIL   -53.507000  -26.012000  -86.140000 O    6401 GOL     0.0000 ****
14074 OIL   -15.516000  -80.647000   27.342000 O    6402 GOL     0.0000 ****
14075 OIL    55.256000   72.246000   42.231000 O    6403 GOL     0.0000 ****
14076 OIL     2.413000   87.521000  -42.188000 O    6404 GOL     0.0000 ****
14077 OIL    68.548000  -53.686000   30.035000 O    6405 GOL     0.0000 ****
14078 OIL   -82.217000  -37.774000   46.289000 O    6406 GOL     0.0000 ****
14079 OIL   -52.997000  -23.286000  -88.561000 O    6407 GOL     0.0000 ****
14080 OIL   -45.867000   32.281000   63.108000 O    6408 GOL     0.0000 ****
14081 OIL   -12.918000   45.678000  -94.735000 O    6409 GOL     0.0000 ****
14082 OIL   -97.378000  -20.133000  -30.916000 O    6410 GOL     0.0000 ****
14083 OIL   -12.270000   93.433000   23.873000 O    6411 GOL     0.0000 ****
14084 OIL    59.361000   72.304000   17.012000 O    6412 GOL     0.0000 ****
14085 OIL    11.671000  -98.615000  -40.138000 O    6413 GOL     0.0000 ****
14086 OIL    22.490000  -94.076000   28.341000 O    6414 GOL     0.0000 ****
14087 OIL    -7.786000   57.121000  -60.725000 O    6415 GOL     0.0000 ****
14088 OIL   -44.360000   19.003000  -39.725000 O    6416 GOL     0.0000 ****
14089 OIL    73.949000   -5.076000   67.616000 O    6417 GOL     0.0000 ****
14090 OIL   -78.124000  -21.110000   57.349000 O    6418 GOL     0.0000 ****
14091 OIL    86.511000   -7.370000   55.393000 O    6419 GOL     0.0000 ****
14092 OIL   -59.581000  -79.588000   10.042000 O    6420 GOL     0.0000 ****
14093 OIL   -86.748000  -59.927000   -4.118000 O    6421 GOL     0.0000 ****
14094 OIL   -59.417000   44.478000   27.737000 O    6422 GOL     0.0000 ****
14095 OIL    60.808000  -56.215000   58.100000 O    6423 GOL     0.0000 ****
14096 OIL   -12.413000   93.308000  -10.564000 O    6424 GOL     0.0000 ****
14097 OIL   -35.949000   80.193000   49.370000 O    6425 GOL     0.0000 ****
14098 OIL     9.336000  -45.812000  -57.530000 O    6426 GOL     0.0000 ****
14099 OIL   -60.511000  -67.682000   28.192000 O    6427 GOL     0.0000 ****
14100 OIL    -9.432000  -76.027000   38.127000 O    6428 GOL     0.0000 ****
14101 OIL   -14.787000   10.725000  -77.546000 O    6429 GOL     0.0000 ****
14102 OIL    54.480000  -15.430000   86.527000 O    6430 GOL     0.0000 ****
14103 OIL    94.211000   23.260000   15.913000 O    6431 GOL     0.0000 ****
14104 OIL    18.959000  -57.640000  -50.917000 O    6432 GOL     0.0000 ****
14105 OIL   -14.313000  -74.935000   32.399000 O    6433 GOL     0.0000 ****
14106 OIL     2.049000  -52.108000   93.816000 O    6434 GOL     0.0000 ****
14107 OIL    34.883000  -98.603000   -5.706000 O    6435 GOL     0.0000 ****
14108 OIL     9.222000  -61.787000   51.664000 O    6436 GOL     0.0000 ****
14109 OIL   -22.880000   35.846000  -94.379000 O    6437 GOL     0.0000 ****
14110 OIL   -75.541000  -41.145000   54.369000 O    6438 GOL     0.0000 ****
14111 OIL     0.650000   37.150000  -70.549000 O    6439 GOL     0.0000 ****
14112 OIL    -2.508000   13.623000   73.154000 O    6440 GOL     0.0000 ****
14113 OIL    29.209000  -23.992000   81.448000 O    6441 GOL     0.0000 ****
14114 OIL    66.889000  -25.804000  -71.120000 O    6442 GOL     0.0000 ****
14115 OIL   -51.520000  -35.639000  -67.712000 O    6443 GOL     0.0000 ****
14116 OIL    21.390000  -49.906000  -83.926000 O    6444 GOL     0.0000 ****
14117 OIL   -62.516000  -73.613000   -9.711000 O    6445 GOL     0.0000 ****
14118 OIL    31.093000  -63.295000   36.941000 O    6446 GOL     0.0000 ****
14119 OIL    67.149000  -63.510000   50.134000 O    6447 GOL     0.0000 ****
14120 OIL    49.987000   74.388000  -46.896000 O    6448 GOL     0.0000 ****
14121 OIL     8.267000  -77.897000  -18.909000 O    6449 GOL     0.0000 ****
14122 OIL   -17.515000  -32.551000  -71.334000 O    6450 GOL     0.0000 ****
14123 OIL   -33.422000  -44.034000   -2.459000 O    6451 GOL     0.0000 ****
14124 OIL    89.002000   55.649000  -12.182000 O    6452 GOL     0.0000 ****
14125 OIL    10.604000  -59.700000  -40.450000 O    6453 GOL     0.0000 ****
14126 OIL    48.088000   72.450000  -55.801000 O    6454 GOL     0.0000 ****
14127 OIL   -49.961000  -20.922000   -4.317000 O    6455 GOL     0.0000 ****
14128 OIL    -8.376000  -97.875000   30.773000 O    6456 GOL     0.0000 ****
14129 OIL    41.932000   69.399000   67.976000 O    6457 GOL     0.0000 ****
14130 OIL     0.516000   76.447000   71.981000 O    6458 GOL     0.0000 ****
14131 OIL    22.417000   76.029000   20.342000 O    6459 GOL     0.0000 ****
14132 OIL   -68.242000   23.941000  -76.107000 O    6460 GOL     0.0000 ****
14133 OIL    24.384000  -77.936000   69.243000 O    6461 GOL     0.0000 ****
14134 OIL   -61.533000  -17.724000  -17.664000 O    6462 GOL     0.0000 ****
14135 OIL   -23.219000  -59.106000  -52.737000 O    6463 GOL     0.0000 ****
14136 OIL   -67.440000  -11.320000   34.593000 O    6464 GOL     0.0000 ****
14137 OIL   -46.573000  -21.181000   -1.530000 O    6465 GOL     0.0000 ****
14138 OIL    25.943000  101.282000    1.368000 O    6466 GOL     0.0000 ****
14139 OIL    88.255000   36.077000   44.358000 O    6467 GOL     0.0000 ****
14140 OIL   -16.051000  -55.141000  -87.177000 O    6468 GOL     0.0000 ****
14141 OIL    21.834000  -72.883000  -22.980000 O    6469 GOL     0.0000 ****
14142 OIL    84.152000   42.376000   32.888000 O    6470 GOL     0.0000 ****
14143 OIL   -50.410000   70.480000  -45.937000 O    6471 GOL     0.0000 ****
14144 OIL   -31.280000   -3.752000 -100.422000 O    6472 GOL     0.0000 ****
14145 OIL    37.237000  -85.530000   32.250000 O    6473 GOL     0.0000 ****
14146 OIL   -67.256000  -60.632000   -6.569000 O    6474 GOL     0.0000 ****
14147 OIL    46.246000  -40.917000   65.038000 O    6475 GOL     0.0000 ****
14148 OIL   -49.477000  -13.859000  -47.032000 O    6476 GOL     0.0000 ****
14149 OIL   -38.505000  -78.515000   -3.920000 O    6477 GOL     0.0000 ****
14150 OIL   -12.321000   28.318000  -91.351000 O    6478 GOL     0.0000 ****
14151 OIL    13.664000   76.823000  -67.151000 O    6479 GOL     0.0000 ****
14152 OIL   -84.016000  -19.406000   17.741000 O    6480 GOL     0.0000 ****
14153 OIL   -49.965000  -46.623000  -10.570000 O    6481 GOL     0.0000 ****
14154 OIL   -76.026000   -8.269000  -67.469000 O    6482 GOL     0.0000 ****
14155 OIL    10.265000  -79.597000   56.799000 O    6483 GOL     0.0000 ****
14156 OIL   -47.138000   66.349000   65.297000 O    6484 GOL     0.0000 ****
14157 OIL     1.118000  -57.003000   56.760000 O    6485 GOL     0.0000 ****
14158 OIL   -39.979000  -92.384000   35.509000 O    6486 GOL     0.0000 ****
14159 OIL    24.095000  103.038000   -8.933000 O    6487 GOL     0.0000 ****
14160 OIL    70.399000   59.800000  -11.738000 O    6488 GOL     0.0000 ****
14161 OIL   -61.993000  -16.585000  -76.377000 O    6489 GOL     0.0000 ****
14162 OIL   -90.830000   20.851000  -41.575000 O    6490 GOL     0.0000 ****
14163 OIL   -29.905000   33.384000   95.751000 O    6491 GOL     0.0000 ****
14164 OIL   -17.474000    8.542000  -83.017000 O    6492 GOL     0.0000 ****
14165 OIL    31.225000   82.498000   46.765000 O    6493 GOL     0.0000 ****
14166 OIL    31.205000   83.476000    5.599000 O    6494 GOL     0.0000 ****
14167 OIL   -21.878000   16.342000  -71.321000 O    6495 GOL     0.0000 ****
14168 OIL   -47.549000  -64.607000    4.190000 O    6496 GOL     0.0000 ****
14169 OIL    30.995000   65.701000  -56.600000 O    6497 GOL     0.0000 ****
14170 OIL   -87.525000    1.270000  -14.774000 O    6498 GOL     0.0000 ****
14171 OIL    87.030000   47.025000   11.686000 O    6499 GOL     0.0000 ****
14172 OIL    45.690000   56.237000  -55.382000 O    6500 GOL     0.0000 ****
14173 OIL     8.171000   82.397000  -19.617000 O    6501 GOL     0.0000 ****
14174 OIL   -33.221000   -2.186000   45.056000 O    6502 GOL     0.0000 ****
14175 OIL   -18.201000    1.517000   70.881000 O    6503 GOL     0.0000 ****
14176 OIL    -7.534000  101.086000   12.445000 O    6504 GOL     0.0000 ****
14177 OIL   -99.252000   26.223000  -27.400000 O    6505 GOL     0.0000 ****
14178 OIL   -42.996000   32.153000   75.992000 O    6506 GOL     0.0000 ****
14179 OIL     1.372000   92.031000   15.629000 O    6507 GOL     0.0000 ****
14180 OIL   -28.034000    6.759000  -64.626000 O    6508 GOL     0.0000 ****
14181 OIL   -94.928000  -19.206000   42.267000 O    6509 GOL     0.0000 ****
14182 OIL    52.690000   75.247000  -42.136000 O    6510 GOL     0.0000 ****
14183 OIL   -29.597000   46.321000   37.416000 O    6511 GOL     0.0000 ****
14184 OIL    54.511000   74.988000   36.509000 O    6512 GOL     0.0000 ****
14185 OIL   -98.855000   -5.415000   34.837000 O    6513 GOL     0.0000 ****
14186 OIL   -12.344000  -65.066000   42.255000 O    6514 GOL     0.0000 ****
14187 OIL   -51.328000   -3.219000   52.601000 O    6515 GOL     0.0000 ****
14188 OIL    45.664000  -10.516000   88.744000 O    6516 GOL     0.0000 ****
14189 OIL   -53.080000  -51.178000   51.208000 O    6517 GOL     0.0000 ****
14190 OIL   -20.520000  -33.819000  -74.040000 O    6518 GOL     0.0000 ****
14191 OIL   -94.042000  -25.030000  -25.761000 O    6519 GOL     0.0000 ****
14192 OIL    -5.829000   22.918000   62.390000 O    6520 GOL     0.0000 ****
14193 OIL    15.420000  -92.071000   11.041000 O    6521 GOL     0.0000 ****
14194 OIL    -4.753000  -24.464000  -67.667000 O    6522 GOL     0.0000 ****
14195 OIL   -45.881000  -21.166000   80.827000 O    6523 GOL     0.0000 ****
14196 OIL     3.094000   11.265000   84.092000 O    6524 GOL     0.0000 ****
14197 OIL    35.834000   89.924000   21.139000 O    6525 GOL     0.0000 ****
14198 OIL   -27.347000   16.063000  -83.129000 O    6526 GOL     0.0000 ****
14199 OIL   -25.135000   58.270000   44.448000 O    6527 GOL     0.0000 ****
14200 OIL    46.027000  -46.361000   55.142000 O    6528 GOL     0.0000 ****
14201 OIL    39.085000  -71.594000   48.417000 O    6529 GOL     0.0000 ****
14202 OIL   -38.518000  -43.365000   59.368000 O    6530 GOL     0.0000 ****
14203 OIL   -55.685000   46.851000  -37.584000 O    6531 GOL     0.0000 ****
14204 OIL   -24.187000   76.955000   68.580000 O    6532 GOL     0.0000 ****
14205 OIL    18.365000  -93.966000  -43.141000 O    6533 GOL     0.0000 ****
14206 OIL    14.834000   93.190000   39.740000 O    6534 GOL     0.0000 ****
14207 OIL    42.029000  -92.044000   13.628000 O    6535 GOL     0.0000 ****
14208 OIL   -27.114000  -46.523000  -63.748000 O    6536 GOL     0.0000 ****
14209 OIL    68.074000   68.814000  -36.213000 O    6537 GOL     0.0000 ****
14210 OIL    -2.806000   50.446000  -91.529000 O    6538 GOL     0.0000 ****
14211 OIL   -54.889000  -49.190000  -45.642000 O    6539 GOL     0.0000 ****
14212 OIL   -16.660000   66.182000  -58.022000 O    6540 GOL     0.0000 ****
14213 OIL   -36.684000  -37.638000   91.875000 O    6541 GOL     0.0000 ****
14214 OIL    68.417000   30.316000  -57.465000 O    6542 GOL     0.0000 ****
14215 OIL   -97.420000  -30.146000    1.033000 O    6543 GOL     0.0000 ****
14216 OIL    -7.238000  -49.353000  -58.552000 O    6544 GOL     0.0000 ****
14217 OIL    37.605000  -54.234000   61.460000 O    6545 GOL     0.0000 ****
14218 OIL   -12.546000  -38.708000  -54.255000 O    6546 GOL     0.0000 ****
14219 OIL    16.601000  -28.870000   70.150000 O    6547 GOL     0.0000 ****
14220 OIL   -52.727000  -40.029000   -3.614000 O    6548 GOL     0.0000 ****
14221 OIL    60.518000  -72.917000   35.357000 O    6549 GOL     0.0000 ****
14222 OIL    58.974000   62.893000   58.501000 O    6550 GOL     0.0000 ****
14223 OIL   -79.166000   36.602000  -38.788000 O    6551 GOL     0.0000 ****
14224 OIL   -80.702000  -21.414000  -23.686000 O    6552 GOL     0.0000 ****
14225 OIL    14.379000  -59.523000  -47.431000 O    6553 GOL     0.0000 ****
14226 OIL    13.033000   46.485000  -80.411000 O    6554 GOL     0.0000 ****
14227 OIL   -70.673000    0.159000   62.468000 O    6555 GOL     0.0000 ****
14228 OIL     1.234000   86.123000  -54.595000 O    6556 GOL     0.0000 ****
14229 OIL    33.608000   65.928000  -75.666000 O    6557 GOL     0.0000 ****
14230 OIL   -81.032000   13.292000   61.334000 O    6558 GOL     0.0000 ****
14231 OIL    -1.221000  -12.508000   90.580000 O    6559 GOL     0.0000 ****
14232 OIL   -44.065000  -44.193000   36.291000 O    6560 GOL     0.0000 ****
14233 OIL    16.827000  -88.769000   -2.394000 O    6561 GOL     0.0000 ****
14234 OIL    33.119000  -20.248000   88.150000 O    6562 GOL     0.0000 ****
14235 OIL    16.874000  -22.312000  -80.926000 O    6563 GOL     0.0000 ****
14236 OIL    71.993000  -52.564000  -38.983000 O    6564 GOL     0.0000 ****
14237 OIL    98.064000   21.115000    4.437000 O    6565 GOL     0.0000 ****
14238 OIL   -15.394000  -41.986000   85.329000 O    6566 GOL     0.0000 ****
14239 OIL   -34.905000  -87.424000   25.281000 O    6567 GOL     0.0000 ****
14240 OIL    69.344000   49.008000   54.122000 O    6568 GOL     0.0000 ****
14241 OIL    93.715000  -30.863000  -29.014000 O    6569 GOL     0.0000 ****
14242 OIL    54.030000   43.090000   67.103000 O    6570 GOL     0.0000 ****
14243 OIL    21.729000  -74.060000   20.441000 O    6571 GOL     0.0000 ****
14244 OIL    17.398000  -68.967000  -68.861000 O    6572 GOL     0.0000 ****
14245 OIL    91.559000  -34.327000  -12.819000 O    6573 GOL     0.0000 ****
14246 OIL    51.894000   19.378000  -89.477000 O    6574 GOL     0.0000 ****
14247 OIL    52.079000   75.827000  -26.713000 O    6575 GOL     0.0000 ****
14248 OIL   -64.109000  -16.817000   -0.022000 O    6576 GOL     0.0000 ****
14249 OIL   -62.305000  -66.702000   26.904000 O    6577 GOL     0.0000 ****
14250 OIL    91.846000  -45.069000   21.912000 O    6578 GOL     0.0000 ****
14251 OIL   -44.667000  -41.190000   70.125000 O    6579 GOL     0.0000 ****
14252 OIL    -4.129000  -61.021000  -78.260000 O    6580 GOL     0.0000 ****
14253 OIL    51.907000  -52.228000   60.473000 O    6581 GOL     0.0000 ****
14254 OIL   -22.003000   79.224000  -17.443000 O    6582 GOL     0.0000 ****
14255 OIL   -13.117000  -56.987000   65.847000 O    6583 GOL     0.0000 ****
14256 OIL   -66.041000   14.010000   53.638000 O    6584 GOL     0.0000 ****
14257 OIL   -46.012000  -45.712000   83.664000 O    6585 GOL     0.0000 ****
14258 OIL   -36.280000   95.328000   23.911000 O    6586 GOL     0.0000 ****
14259 OIL    83.454000   57.455000   31.886000 O    6587 GOL     0.0000 ****
14260 OIL   -12.907000  -76.729000   11.254000 O    6588 GOL     0.0000 ****
14261 OIL   -25.719000   78.907000   -7.674000 O    6589 GOL     0.0000 ****
14262 OIL   -64.006000   47.493000   24.251000 O    6590 GOL     0.0000 ****
14263 OIL    47.458000   47.417000  -82.801000 O    6591 GOL     0.0000 ****
14264 OIL    25.704000   16.052000   93.561000 O    6592 GOL     0.0000 ****
14265 OIL    21.142000  -64.896000   37.613000 O    6593 GOL     0.0000 ****
14266 OIL   -22.063000  -55.700000  -66.335000 O    6594 GOL     0.0000 ****
14267 OIL   -78.476000   35.391000   37.906000 O    6595 GOL     0.0000 ****
14268 OIL    56.734000   39.828000   69.664000 O    6596 GOL     0.0000 ****
14269 OIL   -64.682000   43.027000   36.513000 O    6597 GOL     0.0000 ****
14270 OIL    72.239000  -66.536000   -4.353000 O    6598 GOL     0.0000 ****
14271 OIL    53.707000  -31.483000   74.832000 O    6599 GOL     0.0000 ****
14272 OIL   -39.550000  -43.401000   33.297000 O    6600 GOL     0.0000 ****
14273 OIL    -4.501000  -16.499000  104.099000 O    6601 GOL     0.0000 ****
14274 OIL    25.756000   79.004000    5.915000 O    6602 GOL     0.0000 ****
14275 OIL    25.282000  -26.573000   80.093000 O    6603 GOL     0.0000 ****
14276 OIL    10.597000   45.215000  -91.615000 O    6604 GOL     0.0000 ****
14277 OIL     0.101000  -61.933000   44.328000 O    6605 GOL     0.0000 ****
14278 OIL    26.063000  -82.552000  -27.806000 O    6606 GOL     0.0000 ****
14279 OIL   -20.376000   77.971000   50.216000 O    6607 GOL     0.0000 ****
14280 OIL   -22.876000    7.178000  -87.482000 O    6608 GOL     0.0000 ****
14281 OIL   -57.974000  -83.408000   15.688000 O    6609 GOL     0.0000 ****
14282 OIL    -9.605000  -76.585000   39.327000 O    6610 GOL     0.0000 ****
14283 OIL   -18.112000  -71.346000  -35.684000 O    6611 GOL     0.0000 ****
14284 OIL   -37.839000  -82.611000  -29.557000 O    6612 GOL     0.0000 ****
14285 OIL   -62.865000   -1.338000   -7.145000 O    6613 GOL     0.0000 ****
14286 OIL   -67.707000   78.928000    3.646000 O    6614 GOL     0.0000 ****
14287 OIL   -83.505000   41.471000  -27.939000 O    6615 GOL     0.0000 ****
14288 OIL   -63.875000  -70.638000  -32.998000 O    6616 GOL     0.0000 ****
14289 OIL    15.957000   38.709000   92.524000 O    6617 GOL     0.0000 ****
14290 OIL   -61.907000   32.788000  -70.816000 O    6618 GOL     0.0000 ****
14291 OIL   -24.872000  -85.679000   44.741000 O    6619 GOL     0.0000 ****
14292 OIL    12.556000   75.594000  -69.943000 O    6620 GOL     0.0000 ****
14293 OIL   -69.969000   54.969000  -13.787000 O    6621 GOL     0.0000 ****
14294 OIL     0.694000  -27.135000  -64.238000 O    6622 GOL     0.0000 ****
14295 OIL     1.738000  -58.156000  -56.719000 O    6623 GOL     0.0000 ****
14296 OIL   -63.636000   74.905000  -34.596000 O    6624 GOL     0.0000 ****
14297 OIL   -18.754000   36.321000  -60.363000 O    6625 GOL     0.0000 ****
14298 OIL   -84.520000  -17.379000   58.068000 O    6626 GOL     0.0000 ****
14299 OIL   -70.209000  -22.942000   19.583000 O    6627 GOL     0.0000 ****
14300 OIL    64.488000   65.534000  -46.733000 O    6628 GOL     0.0000 ****
14301 OIL   -43.524000  -73.822000  -37.169000 O    6629 GOL     0.0000 ****
14302 OIL   -76.441000  -32.360000  -66.794000 O    6630 GOL     0.0000 ****
14303 OIL   -37.680000   -7.701000   57.453000 O    6631 GOL     0.0000 ****
14304 OIL   -32.996000   22.798000  -53.321000 O    6632 GOL     0.0000 ****
14305 OIL    84.863000   38.955000  -32.529000 O    6633 GOL     0.0000 ****
14306 OIL   -18.466000  -42.579000  -47.321000 O    6634 GOL     0.0000 ****
14307 OIL   -72.926000   43.666000    9.500000 O    6635 GOL     0.0000 ****
14308 OIL    17.204000   83.541000   30.086000 O    6636 GOL     0.0000 ****
14309 OIL   -63.120000   83.527000    5.803000 O    6637 GOL     0.0000 ****
14310 OIL    50.269000  -14.953000  -90.307000 O    6638 GOL     0.0000 ****
14311 OIL   100.590000   27.057000   18.150000 O    6639 GOL     0.0000 ****
14312 OIL   -43.851000   16.910000  -84.560000 O    6640 GOL     0.0000 ****
14313 OIL   -77.959000  -36.192000   15.756000 O    6641 GOL     0.0000 ****
14314 OIL   -36.291000   36.768000   63.130000 O    6642 GOL     0.0000 ****
14315 OIL   -68.544000  -56.290000  -15.596000 O    6643 GOL     0.0000 ****
14316 OIL   -72.599000   64.257000  -25.367000 O    6644 GOL     0.0000 ****
14317 OIL   -70.148000   19.653000  -59.177000 O    6645 GOL     0.0000 ****
14318 OIL    40.354000  -87.874000   20.502000 O    6646 GOL     0.0000 ****
14319 OIL    10.257000  -62.571000   65.142000 O    6647 GOL     0.0000 ****
14320 OIL   -52.528000  -73.410000   -6.578000 O    6648 GOL     0.0000 ****
14321 OIL   -60.221000    6.825000   65.141000 O    6649 GOL     0.0000 ****
14322 OIL   -37.666000  -76.175000   58.549000 O    6650 GOL     0.0000 ****
14323 OIL   -17.449000  -34.422000  -54.543000 O    6651 GOL     0.0000 ****
14324 OIL    -8.004000  -82.821000  -13.884000 O    6652 GOL     0.0000 ****
14325 OIL   -65.099000   51.038000   28.378000 O    6653 GOL     0.0000 ****
14326 OIL    26.839000  -77.065000   47.798000 O    6654 GOL     0.0000 ****
14327 OIL    86.126000    1.416000  -59.761000 O    6655 GOL     0.0000 ****
14328 OIL   -33.641000   64.994000  -57.168000 O    6656 GOL     0.0000 ****
14329 OIL   -41.080000   16.442000   54.631000 O    6657 GOL     0.0000 ****
14330 OIL   -23.871000  -20.375000 -100.631000 O    6658 GOL     0.0000 ****
14331 OIL    60.886000   76.587000    2.303000 O    6659 GOL     0.0000 ****
14332 OIL   -51.125000  -38.522000   51.055000 O    6660 GOL     0.0000 ****
14333 OIL    10.431000   79.061000  -61.345000 O    6661 GOL     0.0000 ****
14334 OIL   -59.197000  -72.728000   50.737000 O    6662 GOL     0.0000 ****
14335 OIL    18.149000   -7.781000   82.106000 O    6663 GOL     0.0000 ****
14336 OIL   -85.134000    7.708000   -2.425000 O    6664 GOL     0.0000 ****
14337 OIL   102.681000   -0.257000  -13.168000 O    6665 GOL     0.0000 ****
14338 OIL   -65.529000   20.944000   58.318000 O    6666 GOL     0.0000 ****
14339 OIL   -39.687000   64.302000  -18.646000 O    6667 GOL     0.0000 ****
14340 OIL   -90.426000  -23.711000    5.761000 O    6668 GOL     0.0000 ****
14341 OIL   -65.270000   52.148000  -15.854000 O    6669 GOL     0.0000 ****
14342 OIL   -43.322000    4.553000   73.782000 O    6670 GOL     0.0000 ****
14343 OIL    14.379000  -83.183000    6.417000 O    6671 GOL     0.0000 ****
14344 OIL   -23.677000  -21.802000  -91.114000 O    6672 GOL     0.0000 ****
14345 OIL     2.025000   83.832000  -49.554000 O    6673 GOL     0.0000 ****
14346 OIL   -52.129000   74.110000   44.004000 O    6674 GOL     0.0000 ****
14347 OIL    67.324000  -77.668000   10.083000 O    6675 GOL     0.0000 ****
14348 OIL   -24.644000   58.810000   35.246000 O    6676 GOL     0.0000 ****
14349 OIL   -40.366000   27.171000  -56.483000 O    6677 GOL     0.0000 ****
14350 OIL   -69.276000   11.156000   73.984000 O    6678 GOL     0.0000 ****
14351 OIL   -71.961000  -17.450000   57.358000 O    6679 GOL     0.0000 ****
14352 OIL   -59.330000   53.054000   10.665000 O    6680 GOL     0.0000 ****
14353 OIL     2.780000  -54.510000  -42.571000 O    6681 GOL     0.0000 ****
14354 OIL   -37.323000   30.674000   79.263000 O    6682 GOL     0.0000 ****
14355 OIL   -64.570000   63.678000   33.972000 O    6683 GOL     0.0000 ****
14356 OIL   -89.030000   48.131000    8.458000 O    6684 GOL     0.0000 ****
14357 OIL   -43.258000   18.102000   67.943000 O    6685 GOL     0.0000 ****
14358 OIL   -42.078000  -29.519000  -62.272000 O    6686 GOL     0.0000 ****
14359 OIL    -9.353000   68.360000  -45.329000 O    6687 GOL     0.0000 ****
14360 OIL   -90.750000  -40.490000   -4.641000 O    6688 GOL     0.0000 ****
14361 OIL    43.057000  -47.984000  -78.960000 O    6689 GOL     0.0000 ****
14362 OIL   -24.676000   49.033000   36.733000 O    6690 GOL     0.0000 ****
14363 OIL   -50.850000  -85.098000   10.508000 O    6691 GOL     0.0000 ****
14364 OIL   -22.616000  -14.257000  -73.743000 O    6692 GOL     0.0000 ****
14365 OIL    64.610000    1.239000  -73.008000 O    6693 GOL     0.0000 ****
14366 OIL   -39.369000   86.614000   49.575000 O    6694 GOL     0.0000 ****
14367 OIL   -69.069000  -55.943000   36.875000 O    6695 GOL     0.0000 ****
14368 OIL    -9.181000  -37.626000   80.196000 O    6696 GOL     0.0000 ****
14369 OIL   -75.562000   51.621000   -8.751000 O    6697 GOL     0.0000 ****
14370 OIL   -32.702000  -76.848000   41.135000 O    6698 GOL     0.0000 ****
14371 OIL   -62.391000  -22.011000    8.083000 O    6699 GOL     0.0000 ****
14372 OIL     7.132000   49.402000   73.904000 O    6700 GOL     0.0000 ****
14373 OIL    56.911000   75.629000    8.923000 O    6701 GOL     0.0000 ****
14374 OIL     0.292000  -13.811000   80.340000 O    6702 GOL     0.0000 ****
14375 OIL   -48.455000  -31.976000   81.316000 O    6703 GOL     0.0000 ****
14376 OIL    61.313000   47.304000   69.783000 O    6704 GOL     0.0000 ****
14377 OIL    12.170000   37.103000   73.735000 O    6705 GOL     0.0000 ****
14378 OIL   -56.608000   60.363000   24.675000 O    6706 GOL     0.0000 ****
14379 OIL   -69.811000   30.922000  -60.732000 O    6707 GOL     0.0000 ****
14380 OIL   -50.325000  -45.961000  -79.454000 O    6708 GOL     0.0000 ****
14381 OIL   -67.488000   52.397000   15.096000 O    6709 GOL     0.0000 ****
14382 OIL    78.866000  -56.018000    0.849000 O    6710 GOL     0.0000 ****
14383 OIL   -34.186000  -74.436000    7.890000 O    6711 GOL     0.0000 ****
14384 OIL    -9.490000   54.576000   68.527000 O    6712 GOL     0.0000 ****
14385 OIL   -90.712000   32.610000   46.311000 O    6713 GOL     0.0000 ****
14386 OIL   -66.339000    2.628000   68.926000 O    6714 GOL     0.0000 ****
14387 OIL   -62.523000  -31.297000  -53.053000 O    6715 GOL     0.0000 ****
14388 OIL   -60.743000   35.478000  -69.745000 O    6716 GOL     0.0000 ****
14389 OIL   -63.180000   14.009000   58.423000 O    6717 GOL     0.0000 ****
14390 OIL   -69.325000  -65.832000   17.282000 O    6718 GOL     0.0000 ****
14391 OIL   -78.532000  -19.838000   69.915000 O    6719 GOL     0.0000 ****
14392 OIL   -63.883000    4.351000   37.522000 O    6720 GOL     0.0000 ****
14393 OIL   -82.850000  -16.030000  -58.897000 O    6721 GOL     0.0000 ****
14394 OIL    48.329000   73.907000   37.652000 O    6722 GOL     0.0000 ****
14395 OIL    -5.038000   51.874000  -69.580000 O    6723 GOL     0.0000 ****
14396 OIL    96.307000  -24.137000  -17.946000 O    6724 GOL     0.0000 ****
14397 OIL    30.318000  -48.472000   56.756000 O    6725 GOL     0.0000 ****
14398 OIL   -42.952000   63.500000  -39.670000 O    6726 GOL     0.0000 ****
14399 OIL   -57.893000   45.765000  -26.791000 O    6727 GOL     0.0000 ****
14400 OIL   -60.912000   68.387000   15.330000 O    6728 GOL     0.0000 ****
14401 OIL    53.623000  -88.141000   20.713000 O    6729 GOL     0.0000 ****
14402 OIL   -64.558000   67.293000   20.161000 O    6730 GOL     0.0000 ****
14403 OIL   -98.622000   29.437000    7.397000 O    6731 GOL     0.0000 ****
14404 OIL   -27.054000   68.180000  -32.706000 O    6732 GOL     0.0000 ****
14405 OIL    51.893000   -6.195000  -73.234000 O    6733 GOL     0.0000 ****
14406 OIL     8.759000   90.303000    1.182000 O    6734 GOL     0.0000 ****
14407 OIL   -62.427000   60.431000    5.917000 O    6735 GOL     0.0000 ****
14408 OIL    10.323000  -20.936000   86.027000 O    6736 GOL     0.0000 ****
14409 OIL     8.197000   47.930000   64.171000 O    6737 GOL     0.0000 ****
14410 OIL   -50.047000    1.876000  -87.954000 O    6738 GOL     0.0000 ****
14411 OIL   -50.639000  -44.146000  -76.770000 O    6739 GOL     0.0000 ****
14412 OIL    18.875000  -49.686000   67.976000 O    6740 GOL     0.0000 ****
14413 OIL   -31.398000   79.352000   58.571000 O    6741 GOL     0.0000 ****
14414 OIL   -43.254000   17.253000  -25.722000 O    6742 GOL     0.0000 ****
14415 OIL   -65.377000  -43.023000  -53.715000 O    6743 GOL     0.0000 ****
14416 OIL    62.153000   24.078000   71.852000 O    6744 GOL     0.0000 ****
14417 OIL   -88.033000  -12.088000   41.489000 O    6745 GOL     0.0000 ****
14418 OIL    99.888000  -10.344000   28.822000 O    6746 GOL     0.0000 ****
14419 OIL   -24.480000  -47.241000  -66.697000 O    6747 GOL     0.0000 ****
14420 OIL   -80.510000  -31.099000   44.055000 O    6748 GOL     0.0000 ****
14421 OIL   -66.134000  -33.742000   62.796000 O    6749 GOL     0.0000 ****
14422 OIL   -30.742000  -55.079000   30.130000 O    6750 GOL     0.0000 ****
14423 OIL    30.246000   87.904000  -37.880000 O    6751 GOL     0.0000 ****
14424 OIL    -7.172000   39.304000   98.020000 O    6752 GOL     0.0000 ****
14425 OIL   -68.572000   25.400000   35.594000 O    6753 GOL     0.0000 ****
14426 OIL     7.607000  -73.478000   51.258000 O    6754 GOL     0.0000 ****
14427 OIL     4.775000  -77.546000    6.845000 O    6755 GOL     0.0000 ****
14428 OIL   -53.751000   69.711000   -1.863000 O    6756 GOL     0.0000 ****
14429 OIL    39.249000  -67.899000  -37.507000 O    6757 GOL     0.0000 ****
14430 OIL   -31.047000   88.090000   44.898000 O    6758 GOL     0.0000 ****
14431 OIL   -11.952000  -45.210000   82.965000 O    6759 GOL     0.0000 ****
14432 OIL   -26.309000   53.046000   53.877000 O    6760 GOL     0.0000 ****
14433 OIL    33.752000  -34.849000  -85.229000 O    6761 GOL     0.0000 ****
14434 OIL   -78.539000  -25.290000  -63.150000 O    6762 GOL     0.0000 ****
14435 OIL    -3.977000   79.265000  -25.166000 O    6763 GOL     0.0000 ****
14436 OIL    26.705000   74.263000   49.765000 O    6764 GOL     0.0000 ****
14437 OIL   -90.826000   51.020000   -9.274000 O    6765 GOL     0.0000 ****
14438 OIL    25.870000  -36.430000  -68.382000 O    6766 GOL     0.0000 ****
14439 OIL   -86.951000  -51.049000   35.737000 O    6767 GOL     0.0000 ****
14440 OIL    93.321000   46.432000  -24.062000 O    6768 GOL     0.0000 ****
14441 OIL    74.539000   34.901000   48.756000 O    6769 GOL     0.0000 ****
14442 OIL    77.617000  -30.448000   49.069000 O    6770 GOL     0.0000 ****
14443 OIL    36.997000    9.007000   78.780000 O    6771 GOL     0.0000 ****
14444 OIL    24.217000   19.290000   89.332000 O    6772 GOL     0.0000 ****
14445 OIL   -63.636000  -18.503000   23.346000 O    6773 GOL     0.0000 ****
14446 OIL   -27.561000  -93.466000  -38.915000 O    6774 GOL     0.0000 ****
14447 OIL   -50.237000   32.129000  -58.762000 O    6775 GOL     0.0000 ****
14448 OIL   -69.335000   32.726000  -13.379000 O    6776 GOL     0.0000 ****
14449 OIL    65.782000   61.112000   18.905000 O    6777 GOL     0.0000 ****
14450 OIL   -58.411000  -18.522000    4.232000 O    6778 GOL     0.0000 ****
14451 OIL    -3.623000   58.899000   60.941000 O    6779 GOL     0.0000 ****
14452 OIL    85.181000  -57.853000   -9.155000 O    6780 GOL     0.0000 ****
14453 OIL   -10.295000   -5.292000   77.987000 O    6781 GOL     0.0000 ****
14454 OIL     3.676000  -89.166000   37.063000 O    6782 GOL     0.0000 ****
14455 OIL    16.036000  -49.864000   58.051000 O    6783 GOL     0.0000 ****
14456 OIL   -23.076000  -81.201000   55.895000 O    6784 GOL     0.0000 ****
14457 OIL   -51.631000   31.575000   44.660000 O    6785 GOL     0.0000 ****
14458 OIL     7.960000  -83.541000  -52.023000 O    6786 GOL     0.0000 ****
14459 OIL    -3.932000   69.104000   31.260000 O    6787 GOL     0.0000 ****
14460 OIL    45.108000  -64.046000   67.914000 O    6788 GOL     0.0000 ****
14461 OIL   -70.039000  -20.493000    8.246000 O    6789 GOL     0.0000 ****
14462 OIL    56.368000   80.094000   28.478000 O    6790 GOL     0.0000 ****
14463 OIL   -62.775000   32.610000   -5.733000 O    6791 GOL     0.0000 ****
14464 OIL    46.291000  -54.514000   65.406000 O    6792 GOL     0.0000 ****
14465 OIL    45.763000  -45.585000   62.650000 O    6793 GOL     0.0000 ****
14466 OIL   -80.142000   54.208000   30.934000 O    6794 GOL     0.0000 ****
14467 OIL   -35.449000  -70.140000  -40.767000 O    6795 GOL     0.0000 ****
14468 OIL   -40.457000  -72.686000   42.548000 O    6796 GOL     0.0000 ****
14469 OIL   -62.486000   22.993000   55.058000 O    6797 GOL     0.0000 ****
14470 OIL   -53.573000   65.005000   40.245000 O    6798 GOL     0.0000 ****
14471 OIL    98.485000    4.810000  -36.103000 O    6799 GOL     0.0000 ****
14472 OIL   -14.677000   35.152000   82.254000 O    6800 GOL     0.0000 ****
14473 OIL  -101.711000    8.661000  -29.165000 O    6801 GOL     0.0000 ****
14474 OIL    91.797000   54.001000    8.243000 O    6802 GOL     0.0000 ****
14475 OIL    83.166000   54.591000  -36.826000 O    6803 GOL     0.0000 ****
14476 OIL    -2.472000  -71.059000  -70.768000 O    6804 GOL     0.0000 ****
14477 OIL   -32.976000  -61.599000   64.695000 O    6805 GOL     0.0000 ****
14478 OIL   -88.495000  -47.175000   13.108000 O    6806 GOL     0.0000 ****
14479 OIL    97.564000  -36.020000   -5.956000 O    6807 GOL     0.0000 ****
14480 OIL   -40.465000    6.467000  -51.809000 O    6808 GOL     0.0000 ****
14481 OIL   -54.593000   12.704000   38.354000 O    6809 GOL     0.0000 ****
14482 OIL   -81.834000  -34.717000   -0.935000 O    6810 GOL     0.0000 ****
14483 OIL   -38.975000  -32.203000  -46.679000 O    6811 GOL     0.0000 ****
14484 OIL   -50.787000   68.481000    9.614000 O    6812 GOL     0.0000 ****
14485 OIL    79.706000  -41.473000   42.417000 O    6813 GOL     0.0000 ****
14486 OIL    63.662000  -40.329000  -72.520000 O    6814 GOL     0.0000 ****
14487 OIL    42.045000   84.983000  -45.484000 O    6815 GOL     0.0000 ****
14488 OIL    65.595000  -76.726000  -12.951000 O    6816 GOL     0.0000 ****
14489 OIL    26.591000   82.298000   37.358000 O    6817 GOL     0.0000 ****
14490 OIL   -11.592000   67.153000  -44.451000 O    6818 GOL     0.0000 ****
14491 OIL   -79.312000  -18.237000   45.325000 O    6819 GOL     0.0000 ****
14492 OIL     5.958000   65.415000  -39.473000 O    6820 GOL     0.0000 ****
14493 OIL    61.553000  -86.223000    5.132000 O    6821 GOL     0.0000 ****
14494 OIL   -43.051000  -36.147000  -43.286000 O    6822 GOL     0.0000 ****
14495 OIL   -56.550000  -42.976000  -19.427000 O    6823 GOL     0.0000 ****
14496 OIL    30.393000  -85.993000   15.437000 O    6824 GOL     0.0000 ****
14497 OIL   -74.240000    5.727000  -42.958000 O    6825 GOL     0.0000 ****
14498 OIL    69.047000   64.697000   -5.199000 O    6826 GOL     0.0000 ****
14499 OIL   -68.119000  -50.161000   39.701000 O    6827 GOL     0.0000 ****
14500 OIL   -61.584000   49.524000  -44.861000 O    6828 GOL     0.0000 ****
14501 OIL   -52.551000  -20.714000   23.392000 O    6829 GOL     0.0000 ****
14502 OIL    23.206000  -74.011000  -64.582000 O    6830 GOL     0.0000 ****
14503 OIL   -48.373000   29.093000  -38.395000 O    6831 GOL     0.0000 ****
14504 OIL    87.576000   44.163000  -31.652000 O    6832 GOL     0.0000 ****
14505 OIL     2.800000  -64.434000  -85.584000 O    6833 GOL     0.0000 ****
14506 OIL   -33.009000   35.302000   47.113000 O    6834 GOL     0.0000 ****
14507 OIL    28.392000  -90.579000   -2.756000 O    6835 GOL     0.0000 ****
14508 OIL   -11.800000   -6.663000  -79.876000 O    6836 GOL     0.0000 ****
14509 OIL    37.843000  -17.982000   72.154000 O    6837 GOL     0.0000 ****
14510 OIL     6.482000   63.725000  -71.893000 O    6838 GOL     0.0000 ****
14511 OIL   -63.497000  -13.887000  -32.638000 O    6839 GOL     0.0000 ****
14512 OIL    33.636000  -70.489000  -36.603000 O    6840 GOL     0.0000 ****
14513 OIL   -57.543000   69.038000  -20.812000 O    6841 GOL     0.0000 ****
14514 OIL     6.623000   25.127000  -76.549000 O    6842 GOL     0.0000 ****
14515 OIL    -7.660000  -91.460000   37.265000 O    6843 GOL     0.0000 ****
14516 OIL    81.604000   39.182000  -47.590000 O    6844 GOL     0.0000 ****
14517 OIL    66.573000   71.250000   13.542000 O    6845 GOL     0.0000 ****
14518 OIL    32.193000  -12.346000   83.838000 O    6846 GOL     0.0000 ****
14519 OIL    29.090000    5.266000  -96.981000 O    6847 GOL     0.0000 ****
14520 OIL    46.983000   62.462000   52.295000 O    6848 GOL     0.0000 ****
14521 OIL    31.767000   76.394000   46.813000 O    6849 GOL     0.0000 ****
14522 OIL   -32.560000   47.822000   38.473000 O    6850 GOL     0.0000 ****
14523 OIL   -71.310000  -54.673000   -5.381000 O    6851 GOL     0.0000 ****
14524 OIL   -87.448000   11.635000   26.728000 O    6852 GOL     0.0000 ****
14525 OIL     6.486000   48.042000   56.334000 O    6853 GOL     0.0000 ****
14526 OIL     1.865000   61.008000  -50.608000 O    6854 GOL     0.0000 ****
14527 OIL   -10.926000  -74.013000  -32.873000 O    6855 GOL     0.0000 ****
14528 OIL    73.292000   58.464000  -52.148000 O    6856 GOL     0.0000 ****
14529 OIL   -12.729000  -52.466000  -54.750000 O    6857 GOL     0.0000 ****
14530 OIL    -9.980000  -11.543000   96.764000 O    6858 GOL     0.0000 ****
14531 OIL     3.621000   68.591000  -50.636000 O    6859 GOL     0.0000 ****
14532 OIL   -47.853000  -72.574000  -10.384000 O    6860 GOL     0.0000 ****
14533 OIL    59.333000   51.423000  -48.203000 O    6861 GOL     0.0000 ****
14534 OIL   -30.253000   72.071000   62.357000 O    6862 GOL     0.0000 ****
14535 OIL    38.834000   84.986000    8.374000 O    6863 GOL     0.0000 ****
14536 OIL    30.153000  -78.889000   27.161000 O    6864 GOL     0.0000 ****
14537 OIL    25.390000  -71.188000  -37.745000 O    6865 GOL     0.0000 ****
14538 OIL     0.688000  -21.054000  103.799000 O    6866 GOL     0.0000 ****
14539 OIL     0.325000   65.044000  -66.688000 O    6867 GOL     0.0000 ****
14540 OIL   -38.534000  -82.955000   -3.077000 O    6868 GOL     0.0000 ****
14541 OIL   -38.257000   41.688000  -70.387000 O    6869 GOL     0.0000 ****
14542 OIL   -74.420000  -60.534000  -24.926000 O    6870 GOL     0.0000 ****
14543 OIL     7.610000  -67.849000  -41.894000 O    6871 GOL     0.0000 ****
14544 OIL     9.676000  -88.073000   -9.341000 O    6872 GOL     0.0000 ****
14545 OIL     6.229000  -72.918000  -10.512000 O    6873 GOL     0.0000 ****
14546 OIL    85.440000  -11.176000   46.272000 O    6874 GOL     0.0000 ****
14547 OIL    86.515000   43.787000   23.474000 O    6875 GOL     0.0000 ****
14548 OIL   -14.797000  -78.500000  -29.751000 O    6876 GOL     0.0000 ****
14549 OIL    37.308000   59.092000   76.400000 O    6877 GOL     0.0000 ****
14550 OIL   -56.589000   18.661000   43.804000 O    6878 GOL     0.0000 ****
14551 OIL   -36.834000   79.390000  -24.486000 O    6879 GOL     0.0000 ****
14552 OIL   -35.905000   22.727000   90.292000 O    6880 GOL     0.0000 ****
14553 OIL    74.434000   18.420000   53.290000 O    6881 GOL     0.0000 ****
14554 OIL   -76.151000   20.703000    1.394000 O    6882 GOL     0.0000 ****
14555 OIL    20.099000   82.332000   -9.482000 O    6883 GOL     0.0000 ****
14556 OIL    53.583000  -85.493000   32.101000 O    6884 GOL     0.0000 ****
14557 OIL   -39.413000  -45.337000  -80.556000 O    6885 GOL     0.0000 ****
14558 OIL    23.035000    8.201000   97.213000 O    6886 GOL     0.0000 ****
14559 OIL   -52.768000   68.134000   47.356000 O    6887 GOL     0.0000 ****
14560 OIL   -84.519000   -1.888000  -12.745000 O    6888 GOL     0.0000 ****
14561 OIL   -16.450000   65.917000   64.786000 O    6889 GOL     0.0000 ****
14562 OIL   -30.676000    9.586000  -73.616000 O    6890 GOL     0.0000 ****
14563 OIL    95.062000  -22.320000  -16.656000 O    6891 GOL     0.0000 ****
14564 OIL   -76.982000   46.044000  -51.468000 O    6892 GOL     0.0000 ****
14565 OIL    61.203000  -63.932000   33.806000 O    6893 GOL     0.0000 ****
14566 OIL    69.289000  -61.245000  -10.517000 O    6894 GOL     0.0000 ****
14567 OIL   -10.957000  -68.443000    6.337000 O    6895 GOL     0.0000 ****
14568 OIL     6.854000   -5.994000   89.785000 O    6896 GOL     0.0000 ****
14569 OIL   -55.381000   60.099000   22.680000 O    6897 GOL     0.0000 ****
14570 OIL    -9.110000 -102.643000   -7.079000 O    6898 GOL     0.0000 ****
14571 OIL   -37.272000   99.042000    0.259000 O    6899 GOL     0.0000 ****
14572 OIL   -83.407000   16.931000  -31.639000 O    6900 GOL     0.0000 ****
14573 OIL   -37.510000   86.141000  -28.329000 O    6901 GOL     0.0000 ****
14574 OIL    97.237000   19.149000  -35.422000 O    6902 GOL     0.0000 ****
14575 OIL    -7.725000  -69.970000   -5.135000 O    6903 GOL     0.0000 ****
14576 OIL    55.039000   75.323000  -39.180000 O    6904 GOL     0.0000 ****
14577 OIL    -9.617000  -99.098000  -32.768000 O    6905 GOL     0.0000 ****
14578 OIL    19.087000  -90.922000   11.850000 O    6906 GOL     0.0000 ****
14579 OIL    33.818000   79.040000  -33.245000 O    6907 GOL     0.0000 ****
14580 OIL   -52.699000   85.545000   16.210000 O    6908 GOL     0.0000 ****
14581 OIL    30.852000   24.131000  -93.872000 O    6909 GOL     0.0000 ****
14582 OIL    49.892000   74.433000   49.856000 O    6910 GOL     0.0000 ****
14583 OIL     0.391000  -22.162000   89.615000 O    6911 GOL     0.0000 ****
14584 OIL    -2.340000   10.591000   89.195000 O    6912 GOL     0.0000 ****
14585 OIL    18.347000  -27.370000   79.034000 O    6913 GOL     0.0000 ****
14586 OIL   -46.738000  -81.023000    4.744000 O    6914 GOL     0.0000 ****
14587 OIL   -30.706000    5.339000   47.668000 O    6915 GOL     0.0000 ****
14588 OIL    59.008000  -80.851000   -9.418000 O    6916 GOL     0.0000 ****
14589 OIL    48.900000   29.324000  -67.627000 O    6917 GOL     0.0000 ****
14590 OIL   -17.542000    7.616000   69.433000 O    6918 GOL     0.0000 ****
14591 OIL   -18.607000   60.939000   67.450000 O    6919 GOL     0.0000 ****
14592 OIL   -69.149000   20.143000   55.347000 O    6920 GOL     0.0000 ****
14593 OIL   -17.042000  -58.144000   26.039000 O    6921 GOL     0.0000 ****
14594 OIL   -83.723000  -18.356000   25.213000 O    6922 GOL     0.0000 ****
14595 OIL    -6.591000 -104.515000   10.475000 O    6923 GOL     0.0000 ****
14596 OIL   -10.013000    4.802000 -105.548000 O    6924 GOL     0.0000 ****
14597 OIL    -2.117000  103.996000    0.364000 O    6925 GOL     0.0000 ****
14598 OIL   -20.948000   37.936000   82.592000 O    6926 GOL     0.0000 ****
14599 OIL   -67.619000   42.221000   18.283000 O    6927 GOL     0.0000 ****
14600 OIL     0.931000  101.140000  -16.109000 O    6928 GOL     0.0000 ****
14601 OIL   -25.822000   73.966000   52.264000 O    6929 GOL     0.0000 ****
14602 OIL   -16.000000   60.699000   39.823000 O    6930 GOL     0.0000 ****
14603 OIL   -35.318000  -82.343000  -29.314000 O    6931 GOL     0.0000 ****
14604 OIL   -43.852000  -18.001000    2.155000 O    6932 GOL     0.0000 ****
14605 OIL    63.633000  -15.472000  -62.327000 O    6933 GOL     0.0000 ****
14606 OIL    -2.392000  -83.938000  -51.990000 O    6934 GOL     0.0000 ****
14607 OIL   -43.124000   70.588000   38.594000 O    6935 GOL     0.0000 ****
14608 OIL   -84.758000   -1.378000   12.179000 O    6936 GOL     0.0000 ****
14609 OIL    27.376000    6.457000   83.362000 O    6937 GOL     0.0000 ****
14610 OIL    25.712000  -69.475000  -33.272000 O    6938 GOL     0.0000 ****
14611 OIL    73.591000   28.975000   46.732000 O    6939 GOL     0.0000 ****
14612 OIL    33.419000   14.390000  -85.867000 O    6940 GOL     0.0000 ****
14613 OIL   -93.598000  -47.181000   16.133000 O    6941 GOL     0.0000 ****
14614 OIL    12.215000   94.435000   23.559000 O    6942 GOL     0.0000 ****
14615 OIL   -53.879000  -51.543000  -43.618000 O    6943 GOL     0.0000 ****
14616 OIL   -54.240000  -84.412000  -10.363000 O    6944 GOL     0.0000 ****
14617 OIL     4.410000   73.442000  -53.747000 O    6945 GOL     0.0000 ****
14618 OIL    63.449000   66.974000    0.485000 O    6946 GOL     0.0000 ****
14619 OIL    47.503000   79.121000  -37.036000 O    6947 GOL     0.0000 ****
14620 OIL   -67.271000  -80.739000    9.542000 O    6948 GOL     0.0000 ****
14621 OIL    51.660000   75.776000   -1.940000 O    6949 GOL     0.0000 ****
14622 OIL   -63.626000  -59.992000   46.317000 O    6950 GOL     0.0000 ****
14623 OIL   -62.447000  -29.473000  -48.058000 O    6951 GOL     0.0000 ****
14624 OIL   -34.296000  -17.499000  -62.997000 O    6952 GOL     0.0000 ****
14625 OIL    23.880000  -57.412000  -46.738000 O    6953 GOL     0.0000 ****
14626 OIL    40.118000  -97.000000   18.486000 O    6954 GOL     0.0000 ****
14627 OIL   -36.333000   -4.939000  -67.086000 O    6955 GOL     0.0000 ****
14628 OIL   -15.097000  -45.478000  -48.073000 O    6956 GOL     0.0000 ****
14629 OIL   -26.465000  -56.806000  -63.831000 O    6957 GOL     0.0000 ****
14630 OIL   -49.096000  -76.213000   47.323000 O    6958 GOL     0.0000 ****
14631 OIL   -17.054000   56.487000  -55.668000 O    6959 GOL     0.0000 ****
14632 OIL     3.833000  -14.391000  105.754000 O    6960 GOL     0.0000 ****
14633 OIL   -32.834000   48.315000   72.381000 O    6961 GOL     0.0000 ****
14634 OIL   -65.489000  -75.832000  -12.815000 O    6962 GOL     0.0000 ****
14635 OIL    67.222000   33.460000   74.322000 O    6963 GOL     0.0000 ****
14636 OIL   -42.166000   -3.221000   91.586000 O    6964 GOL     0.0000 ****
14637 OIL   -33.980000   75.541000  -37.779000 O    6965 GOL     0.0000 ****
14638 OIL    17.733000  -59.383000   48.018000 O    6966 GOL     0.0000 ****
14639 OIL    -3.505000  -46.457000   83.811000 O    6967 GOL     0.0000 ****
14640 OIL   -46.718000   -3.307000  -80.185000 O    6968 GOL     0.0000 ****
14641 OIL   -92.882000   -3.026000   44.712000 O    6969 GOL     0.0000 ****
14642 OIL   -98.028000   33.208000  -15.954000 O    6970 GOL     0.0000 ****
14643 OIL   -19.889000  -75.521000  -48.276000 O    6971 GOL     0.0000 ****
14644 OIL    17.695000  -83.154000   47.310000 O    6972 GOL     0.0000 ****
14645 OIL    56.510000   60.108000   39.936000 O    6973 GOL     0.0000 ****
14646 OIL    49.323000  -67.970000   65.221000 O    6974 GOL     0.0000 ****
14647 OIL   -24.257000   18.109000   64.062000 O    6975 GOL     0.0000 ****
14648 OIL    14.212000   89.634000  -34.437000 O    6976 GOL     0.0000 ****
14649 OIL    20.668000   92.718000    1.281000 O    6977 GOL     0.0000 ****
14650 OIL    12.342000  -92.209000   36.801000 O    6978 GOL     0.0000 ****
14651 OIL   -44.493000  -50.960000   44.472000 O    6979 GOL     0.0000 ****
14652 OIL   -55.218000  -66.805000  -53.893000 O    6980 GOL     0.0000 ****
14653 OIL   -46.975000  -13.762000  -46.491000 O    6981 GOL     0.0000 ****
14654 OIL    97.531000    1.346000  -22.554000 O    6982 GOL     0.0000 ****
14655 OIL    30.019000  -84.239000  -15.819000 O    6983 GOL     0.0000 ****
14656 OIL    -9.706000   15.424000 -100.926000 O    6984 GOL     0.0000 ****
14657 OIL    -4.183000  101.673000  -20.647000 O    6985 GOL     0.0000 ****
14658 OIL   -86.991000  -40.140000  -26.619000 O    6986 GOL     0.0000 ****
14659 OIL     7.568000    0.735000  -82.896000 O    6987 GOL     0.0000 ****
14660 OIL    60.810000   72.878000   40.044000 O    6988 GOL     0.0000 ****
14661 OIL    80.934000  -62.740000  -18.859000 O    6989 GOL     0.0000 ****
14662 OIL    -6.910000  -46.639000   71.832000 O    6990 GOL     0.0000 ****
14663 OIL    42.602000  -22.644000  -95.643000 O    6991 GOL     0.0000 ****
14664 OIL    14.363000  -89.514000  -47.261000 O    6992 GOL     0.0000 ****
14665 OIL     7.022000  100.899000  -21.270000 O    6993 GOL     0.0000 ****
14666 OIL  -102.013000   27.690000   -4.115000 O    6994 GOL     0.0000 ****
14667 OIL   -47.561000   -5.319000   48.904000 O    6995 GOL     0.0000 ****
14668 OIL    68.133000  -71.809000  -39.737000 O    6996 GOL     0.0000 ****
14669 OIL   -79.853000   47.719000  -24.666000 O    6997 GOL     0.0000 ****
14670 OIL   -39.963000   21.112000   38.210000 O    6998 GOL     0.0000 ****
14671 OIL     4.088000  -22.666000   64.368000 O    6999 GOL     0.0000 ****
14672 OIL   -80.394000   34.516000   37.761000 O    7000 GOL     0.0000 ****
14673 OIL   -75.286000  -51.859000  -42.612000 O    7001 GOL     0.0000 ****
14674 OIL   -26.271000  -74.430000   35.271000 O    7002 GOL     0.0000 ****
14675 OIL   -29.112000  -28.625000   54.064000 O    7003 GOL     0.0000 ****
14676 OIL   -14.988000   83.474000  -46.356000 O    7004 GOL     0.0000 ****
14677 OIL    40.003000   -2.724000  -94.760000 O    7005 GOL     0.0000 ****
14678 OIL    11.696000   46.199000   57.925000 O    7006 GOL     0.0000 ****
14679 OIL    16.102000  -87.380000   55.210000 O    7007 GOL     0.0000 ****
14680 OIL   -50.301000  -11.567000   14.305000 O    7008 GOL     0.0000 ****
14681 OIL   -62.807000   64.171000   28.914000 O    7009 GOL     0.0000 ****
14682 OIL    10.669000  -92.002000   -6.290000 O    7010 GOL     0.0000 ****
14683 OIL   -13.657000   63.481000  -83.823000 O    7011 GOL     0.0000 ****
14684 OIL    62.888000   14.535000   84.039000 O    7012 GOL     0.0000 ****
14685 OIL     1.403000  -56.827000   37.022000 O    7013 GOL     0.0000 ****
14686 OIL   -64.264000  -30.676000   72.713000 O    7014 GOL     0.0000 ****
14687 OIL   -37.169000   13.615000   60.150000 O    7015 GOL     0.0000 ****
14688 OIL    80.672000  -32.557000  -53.605000 O    7016 GOL     0.0000 ****
14689 OIL   -76.309000  -24.998000   58.998000 O    7017 GOL     0.0000 ****
14690 OIL    -7.827000   21.276000   67.040000 O    7018 GOL     0.0000 ****
14691 OIL    99.250000   30.912000   20.345000 O    7019 GOL     0.0000 ****
14692 OIL    46.185000  -87.279000   16.994000 O    7020 GOL     0.0000 ****
14693 OIL    -2.331000  -38.800000   91.962000 O    7021 GOL     0.0000 ****
14694 OIL    40.620000  -65.592000   51.605000 O    7022 GOL     0.0000 ****
14695 OIL     7.113000   -3.430000 -103.677000 O    7023 GOL     0.0000 ****
14696 OIL    47.686000   87.707000  -18.440000 O    7024 GOL     0.0000 ****
14697 OIL    73.528000  -56.765000    0.182000 O    7025 GOL     0.0000 ****
14698 OIL    38.198000  -32.129000  -67.630000 O    7026 GOL     0.0000 ****
14699 OIL   -45.228000  -89.230000   30.569000 O    7027 GOL     0.0000 ****
14700 OIL   -49.369000   49.916000  -15.654000 O    7028 GOL     0.0000 ****
14701 OIL   -75.141000   60.889000  -30.638000 O    7029 GOL     0.0000 ****
14702 OIL   -52.953000   29.695000  -23.863000 O    7030 GOL     0.0000 ****
14703 OIL    26.807000   51.319000  -71.315000 O    7031 GOL     0.0000 ****
14704 OIL   -31.344000   45.208000  -15.201000 O    7032 GOL     0.0000 ****
14705 OIL   -36.959000  -26.611000  -57.426000 O    7033 GOL     0.0000 ****
14706 OIL   -37.143000   17.318000  -67.844000 O    7034 GOL     0.0000 ****
14707 OIL    76.881000   34.917000   59.870000 O    7035 GOL     0.0000 ****
14708 OIL   -26.677000  -64.451000  -68.983000 O    7036 GOL     0.0000 ****
14709 OIL   -34.480000  -62.149000   42.202000 O    7037 GOL     0.0000 ****
14710 OIL   -80.947000   23.872000  -58.836000 O    7038 GOL     0.0000 ****
14711 OIL    68.136000   32.965000  -66.376000 O    7039 GOL     0.0000 ****
14712 OIL   -21.111000  -30.150000  -52.170000 O    7040 GOL     0.0000 ****
14713 OIL   -57.664000   20.016000  -63.545000 O    7041 GOL     0.0000 ****
14714 OIL   -41.167000  -22.472000  -31.095000 O    7042 GOL     0.0000 ****
14715 OIL   -20.619000   -9.778000   67.615000 O    7043 GOL     0.0000 ****
14716 OIL    58.548000  -36.704000   66.857000 O    7044 GOL     0.0000 ****
14717 OIL    53.805000   57.141000  -50.780000 O    7045 GOL     0.0000 ****
14718 OIL   -39.105000  -85.769000  -45.583000 O    7046 GOL     0.0000 ****
14719 OIL   -65.108000   73.277000  -26.516000 O    7047 GOL     0.0000 ****
14720 OIL     8.650000  -94.471000   49.447000 O    7048 GOL     0.0000 ****
14721 OIL   -44.019000   68.047000   56.944000 O    7049 GOL     0.0000 ****
14722 OIL   -80.827000  -28.142000    3.262000 O    7050 GOL     0.0000 ****
14723 OIL   -48.560000   73.272000   -9.627000 O    7051 GOL     0.0000 ****
14724 OIL   -34.527000  -45.560000  -75.328000 O    7052 GOL     0.0000 ****
14725 OIL   -40.837000    6.820000  -66.455000 O    7053 GOL     0.0000 ****
14726 OIL   -31.651000   19.826000   97.009000 O    7054 GOL     0.0000 ****
14727 OIL   -14.586000  -14.010000   70.901000 O    7055 GOL     0.0000 ****
14728 OIL    -1.868000   -3.490000  -98.208000 O    7056 GOL     0.0000 ****
14729 OIL    36.207000   10.358000   94.296000 O    7057 GOL     0.0000 ****
14730 OIL   -60.717000  -17.598000  -21.182000 O    7058 GOL     0.0000 ****
14731 OIL   -42.084000   33.266000   53.993000 O    7059 GOL     0.0000 ****
14732 OIL    61.059000  -48.501000   61.381000 O    7060 GOL     0.0000 ****
14733 OIL    98.126000  -16.521000  -25.269000 O    7061 GOL     0.0000 ****
14734 OIL   -73.624000   29.147000   -4.248000 O    7062 GOL     0.0000 ****
14735 OIL   -44.629000  -82.023000  -13.548000 O    7063 GOL     0.0000 ****
14736 OIL    17.124000   93.725000   -8.747000 O    7064 GOL     0.0000 ****
14737 OIL   -96.807000  -29.573000  -15.592000 O    7065 GOL     0.0000 ****
14738 OIL    46.632000   84.027000    5.179000 O    7066 GOL     0.0000 ****
14739 OIL     4.381000  -69.334000  -12.547000 O    7067 GOL     0.0000 ****
14740 OIL   -61.607000  -44.345000  -66.861000 O    7068 GOL     0.0000 ****
14741 OIL   -65.428000   24.035000   19.022000 O    7069 GOL     0.0000 ****
14742 OIL   -92.836000  -26.081000   -4.293000 O    7070 GOL     0.0000 ****
14743 OIL   -43.779000  -43.178000   23.398000 O    7071 GOL     0.0000 ****
14744 OIL    39.233000  -69.600000  -40.769000 O    7072 GOL     0.0000 ****
14745 OIL    82.237000  -38.368000   51.058000 O    7073 GOL     0.0000 ****
14746 OIL    -3.562000  -61.931000  -43.495000 O    7074 GOL     0.0000 ****
14747 OIL    29.236000    4.324000 -103.163000 O    7075 GOL     0.0000 ****
14748 OIL     3.595000  -19.701000   74.232000 O    7076 GOL     0.0000 ****
14749 OIL    58.914000   62.263000   33.503000 O    7077 GOL     0.0000 ****
14750 OIL   -83.861000  -34.856000    3.069000 O    7078 GOL     0.0000 ****
14751 OIL   -54.821000   52.562000   -6.187000 O    7079 GOL     0.0000 ****
14752 OIL    13.182000  -95.586000   27.836000 O    7080 GOL     0.0000 ****
14753 OIL     5.527000  -70.916000   43.665000 O    7081 GOL     0.0000 ****
14754 OIL    72.044000   12.257000   72.069000 O    7082 GOL     0.0000 ****
14755 OIL    28.228000  -47.286000  -57.621000 O    7083 GOL     0.0000 ****
14756 OIL    -6.848000  -19.175000   84.009000 O    7084 GOL     0.0000 ****
14757 OIL    12.054000   62.559000   41.802000 O    7085 GOL     0.0000 ****
14758 OIL    19.041000   75.759000   66.877000 O    7086 GOL     0.0000 ****
14759 OIL  -106.343000    0.045000   -1.705000 O    7087 GOL     0.0000 ****
14760 OIL   -22.477000   64.293000   10.254000 O    7088 GOL     0.0000 ****
14761 OIL     9.506000    9.233000 -105.015000 O    7089 GOL     0.0000 ****
14762 OIL   -11.498000   64.814000   20.818000 O    7090 GOL     0.0000 ****
14763 OIL     8.476000   81.991000  -46.013000 O    7091 GOL     0.0000 ****
14764 OIL    -1.428000  -37.402000   74.069000 O    7092 GOL     0.0000 ****
14765 OIL     8.829000   70.980000   78.389000 O    7093 GOL     0.0000 ****
14766 OIL   -69.664000  -40.722000   43.805000 O    7094 GOL     0.0000 ****
14767 OIL     2.778000  -32.428000   82.287000 O    7095 GOL     0.0000 ****
14768 OIL   -49.010000   -4.853000    0.560000 O    7096 GOL     0.0000 ****
14769 OIL  -101.601000  -29.379000    1.680000 O    7097 GOL     0.0000 ****
14770 OIL   -68.370000  -21.786000  -59.966000 O    7098 GOL     0.0000 ****
14771 OIL   -89.284000    5.107000  -15.117000 O    7099 GOL     0.0000 ****
14772 OIL   -91.921000  -23.336000   -8.391000 O    7100 GOL     0.0000 ****
14773 OIL     4.975000  -46.563000   88.540000 O    7101 GOL     0.0000 ****
14774 OIL   -31.275000   40.664000   24.934000 O    7102 GOL     0.0000 ****
14775 OIL    22.118000  -25.894000   82.978000 O    7103 GOL     0.0000 ****
14776 OIL    28.312000   82.116000   24.179000 O    7104 GOL     0.0000 ****
14777 OIL   -79.962000  -12.156000   24.447000 O    7105 GOL     0.0000 ****
14778 OIL    25.672000   87.497000  -49.570000 O    7106 GOL     0.0000 ****
14779 OIL    40.471000   59.607000   66.025000 O    7107 GOL     0.0000 ****
14780 OIL   -33.916000   44.976000   19.195000 O    7108 GOL     0.0000 ****
14781 OIL    45.928000  -13.459000   76.488000 O    7109 GOL     0.0000 ****
14782 OIL   -32.599000   90.934000  -23.229000 O    7110 GOL     0.0000 ****
14783 OIL     4.908000  -81.269000  -49.604000 O    7111 GOL     0.0000 ****
14784 OIL    77.784000  -56.943000   -3.157000 O    7112 GOL     0.0000 ****
14785 OIL   -42.325000  -14.898000   91.940000 O    7113 GOL     0.0000 ****
14786 OIL   -34.771000  -11.320000   65.198000 O    7114 GOL     0.0000 ****
14787 OIL   -11.381000  -64.124000  -51.908000 O    7115 GOL     0.0000 ****
14788 OIL   -25.394000    0.283000  -83.703000 O    7116 GOL     0.0000 ****
14789 OIL   -13.530000  -19.639000   90.916000 O    7117 GOL     0.0000 ****
14790 OIL    81.897000  -18.519000   51.943000 O    7118 GOL     0.0000 ****
14791 OIL    23.368000  -38.585000  -73.478000 O    7119 GOL     0.0000 ****
14792 OIL   -18.199000   41.382000  -90.539000 O    7120 GOL     0.0000 ****
14793 OIL     5.868000  -86.753000  -32.010000 O    7121 GOL     0.0000 ****
14794 OIL    54.453000  -88.158000   25.515000 O    7122 GOL     0.0000 ****
14795 OIL    70.730000  -35.323000  -56.258000 O    7123 GOL     0.0000 ****
14796 OIL    26.167000  -98.454000  -33.256000 O    7124 GOL     0.0000 ****
14797 OIL    20.337000  -36.763000  -89.577000 O    7125 GOL     0.0000 ****
14798 OIL    50.912000   67.368000   41.052000 O    7126 GOL     0.0000 ****
14799 OIL   -35.129000   66.428000    5.519000 O    7127 GOL     0.0000 ****
14800 OIL   -65.734000   57.568000   20.023000 O    7128 GOL     0.0000 ****
14801 OIL   -39.626000   45.305000   52.644000 O    7129 GOL     0.0000 ****
14802 OIL   -52.172000  -35.879000  -63.158000 O    7130 GOL     0.0000 ****
14803 OIL    20.516000   80.001000  -38.597000 O    7131 GOL     0.0000 ****
14804 OIL   -75.107000  -72.120000   26.262000 O    7132 GOL     0.0000 ****
14805 OIL   -47.414000   57.766000   76.555000 O    7133 GOL     0.0000 ****
14806 OIL    66.272000   22.027000   71.582000 O    7134 GOL     0.0000 ****
14807 OIL     3.335000   53.734000   64.608000 O    7135 GOL     0.0000 ****
14808 OIL   -54.202000  -77.925000  -42.730000 O    7136 GOL     0.0000 ****
14809 OIL   -17.851000   38.202000  -79.351000 O    7137 GOL     0.0000 ****
14810 OIL   -71.680000   33.606000  -17.433000 O    7138 GOL     0.0000 ****
14811 OIL   -81.329000   12.881000   33.814000 O    7139 GOL     0.0000 ****
14812 OIL    -4.519000   50.659000   82.433000 O    7140 GOL     0.0000 ****
14813 OIL    36.423000   71.889000  -13.294000 O    7141 GOL     0.0000 ****
14814 OIL    18.582000   68.424000  -60.577000 O    7142 GOL     0.0000 ****
14815 OIL    -5.252000   69.902000   79.975000 O    7143 GOL     0.0000 ****
14816 OIL     2.754000   72.421000   64.853000 O    7144 GOL     0.0000 ****
14817 OIL    -7.236000   77.554000   22.693000 O    7145 GOL     0.0000 ****
14818 OIL    78.505000   68.415000  -11.301000 O    7146 GOL     0.0000 ****
14819 OIL    91.362000   39.921000   -5.689000 O    7147 GOL     0.0000 ****
14820 OIL   -75.965000   71.155000   -9.705000 O    7148 GOL     0.0000 ****
14821 OIL    85.034000   23.467000  -58.562000 O    7149 GOL     0.0000 ****
14822 OIL     9.249000  -31.601000   93.125000 O    7150 GOL     0.0000 ****
14823 OIL   -56.923000  -70.205000  -39.763000 O    7151 GOL     0.0000 ****
14824 OIL   -64.620000  -27.065000  -43.410000 O    7152 GOL     0.0000 ****
14825 OIL   -35.419000  -57.034000   21.881000 O    7153 GOL     0.0000 ****
14826 OIL    45.823000  -76.755000  -45.188000 O    7154 GOL     0.0000 ****
14827 OIL    31.235000   93.944000   -7.353000 O    7155 GOL     0.0000 ****
14828 OIL    75.767000   53.310000   25.090000 O    7156 GOL     0.0000 ****
14829 OIL   -76.934000  -32.567000   -0.511000 O    7157 GOL     0.0000 ****
14830 OIL    10.309000  -37.931000  -64.577000 O    7158 GOL     0.0000 ****
14831 OIL   101.092000   24.335000   -9.034000 O    7159 GOL     0.0000 ****
14832 OIL   -30.005000   81.880000   -0.249000 O    7160 GOL     0.0000 ****
14833 OIL    29.204000  -83.649000  -47.611000 O    7161 GOL     0.0000 ****
14834 OIL    63.912000  -83.159000  -22.157000 O    7162 GOL     0.0000 ****
14835 OIL   -48.148000   77.373000  -42.083000 O    7163 GOL     0.0000 ****
14836 OIL    44.508000   71.004000  -55.779000 O    7164 GOL     0.0000 ****
14837 OIL   -78.373000   38.372000   47.180000 O    7165 GOL     0.0000 ****
14838 OIL    12.464000   69.887000   72.230000 O    7166 GOL     0.0000 ****
14839 OIL   -30.943000   55.124000   36.701000 O    7167 GOL     0.0000 ****
14840 OIL  -101.072000   12.173000  -24.355000 O    7168 GOL     0.0000 ****
14841 OIL    30.054000   22.000000  -87.835000 O    7169 GOL     0.0000 ****
14842 OIL    93.299000   18.691000   28.921000 O    7170 GOL     0.0000 ****
14843 OIL   -77.146000   16.162000   41.236000 O    7171 GOL     0.0000 ****
14844 OIL    55.281000   59.516000  -54.221000 O    7172 GOL     0.0000 ****
14845 OIL    -7.060000  -50.586000   70.647000 O    7173 GOL     0.0000 ****
14846 OIL    15.837000   84.395000   27.183000 O    7174 GOL     0.0000 ****
14847 OIL     4.124000   71.580000    6.874000 O    7175 GOL     0.0000 ****
14848 OIL   -51.114000   18.443000  -80.797000 O    7176 GOL     0.0000 ****
14849 OIL    66.054000  -44.410000  -60.419000 O    7177 GOL     0.0000 ****
14850 OIL   -83.233000   15.798000  -42.165000 O    7178 GOL     0.0000 ****
14851 OIL   -30.849000  -73.772000   -3.009000 O    7179 GOL     0.0000 ****
14852 OIL   -29.295000   82.999000   15.216000 O    7180 GOL     0.0000 ****
14853 OIL   -32.882000   24.283000   48.697000 O    7181 GOL     0.0000 ****
14854 OIL   -13.768000   63.614000   35.758000 O    7182 GOL     0.0000 ****
14855 OIL     7.233000   46.440000   53.197000 O    7183 GOL     0.0000 ****
14856 OIL   -10.103000   17.611000  -86.911000 O    7184 GOL     0.0000 ****
14857 OIL    20.968000  -87.191000  -57.776000 O    7185 GOL     0.0000 ****
14858 OIL    18.133000  -59.869000   76.635000 O    7186 GOL     0.0000 ****
14859 OIL   -30.674000   49.276000   -5.245000 O    7187 GOL     0.0000 ****
14860 OIL    -3.208000   98.919000  -16.833000 O    7188 GOL     0.0000 ****
14861 OIL     0.666000   78.796000  -61.692000 O    7189 GOL     0.0000 ****
14862 OIL   -45.273000  -34.204000  -25.598000 O    7190 GOL     0.0000 ****
14863 OIL   -57.378000   51.311000  -43.382000 O    7191 GOL     0.0000 ****
14864 OIL   -34.959000    4.702000   69.467000 O    7192 GOL     0.0000 ****
14865 OIL    23.031000   75.535000   72.677000 O    7193 GOL     0.0000 ****
14866 OIL    33.465000  -86.702000   25.073000 O    7194 GOL     0.0000 ****
14867 OIL    -7.670000  -80.273000   62.446000 O    7195 GOL     0.0000 ****
14868 OIL   -48.783000   10.673000  -80.400000 O    7196 GOL     0.0000 ****
14869 OIL    72.026000  -47.642000  -50.439000 O    7197 GOL     0.0000 ****
14870 OIL    26.276000   70.144000   66.156000 O    7198 GOL     0.0000 ****
14871 OIL    -8.089000   61.273000   37.096000 O    7199 GOL     0.0000 ****
14872 OIL    81.665000  -49.485000   17.641000 O    7200 GOL     0.0000 ****
14873 OIL    13.144000  -50.128000  -54.220000 O    7201 GOL     0.0000 ****
14874 OIL    50.727000  -82.001000  -24.720000 O    7202 GOL     0.0000 ****
14875 OIL    87.912000  -21.582000  -45.562000 O    7203 GOL     0.0000 ****
14876 OIL   -21.959000    6.080000  -84.214000 O    7204 GOL     0.0000 ****
14877 OIL    -1.124000   51.069000  -75.559000 O    7205 GOL     0.0000 ****
14878 OIL    48.011000  -20.076000   70.701000 O    7206 GOL     0.0000 ****
14879 OIL    83.996000   -0.226000  -51.855000 O    7207 GOL     0.0000 ****
14880 OIL    94.094000  -39.623000   11.783000 O    7208 GOL     0.0000 ****
14881 OIL   -65.383000  -50.995000  -59.203000 O    7209 GOL     0.0000 ****
14882 OIL    -2.615000   34.149000   98.082000 O    7210 GOL     0.0000 ****
14883 OIL   -55.570000  -69.268000   50.225000 O    7211 GOL     0.0000 ****
14884 OIL   -79.552000   20.958000   33.760000 O    7212 GOL     0.0000 ****
14885 OIL    76.249000    8.467000  -75.033000 O    7213 GOL     0.0000 ****
14886 OIL    13.152000   56.680000  -73.260000 O    7214 GOL     0.0000 ****
14887 OIL   -21.702000  -28.794000   88.990000 O    7215 GOL     0.0000 ****
14888 OIL     2.160000  -69.331000    3.632000 O    7216 GOL     0.0000 ****
14889 OIL     7.859000   94.686000    3.524000 O    7217 GOL     0.0000 ****
14890 OIL   -36.147000  -44.687000   12.517000 O    7218 GOL     0.0000 ****
14891 OIL   -33.996000   85.882000   19.352000 O    7219 GOL     0.0000 ****
14892 OIL   -25.287000   59.492000   46.484000 O    7220 GOL     0.0000 ****
14893 OIL    26.556000  -55.138000  -68.322000 O    7221 GOL     0.0000 ****
14894 OIL   -81.995000  -22.761000   25.229000 O    7222 GOL     0.0000 ****
14895 OIL    34.965000    4.285000  -94.988000 O    7223 GOL     0.0000 ****
14896 OIL   -21.833000  -53.646000  -69.374000 O    7224 GOL     0.0000 ****
14897 OIL   -58.234000  -81.666000   -6.286000 O    7225 GOL     0.0000 ****
14898 OIL   -67.682000   -9.947000  -29.876000 O    7226 GOL     0.0000 ****
14899 OIL    37.304000   64.683000   57.704000 O    7227 GOL     0.0000 ****
14900 OIL   -74.024000   24.180000  -70.524000 O    7228 GOL     0.0000 ****
14901 OIL    54.759000  -52.526000  -46.584000 O    7229 GOL     0.0000 ****
14902 OIL    11.680000  -30.910000  -97.100000 O    7230 GOL     0.0000 ****
14903 OIL    -7.322000  -62.137000   54.459000 O    7231 GOL     0.0000 ****
14904 OIL   -43.612000  -40.447000  -80.842000 O    7232 GOL     0.0000 ****
14905 OIL    20.331000  -48.659000  -83.062000 O    7233 GOL     0.0000 ****
14906 OIL   100.505000   26.968000  -23.738000 O    7234 GOL     0.0000 ****
14907 OIL   -30.448000  -19.361000  -48.896000 O    7235 GOL     0.0000 ****
14908 OIL    72.592000  -32.824000   64.466000 O    7236 GOL     0.0000 ****
14909 OIL   -59.597000  -21.917000   24.695000 O    7237 GOL     0.0000 ****
14910 OIL   -37.524000  -70.479000   42.578000 O    7238 GOL     0.0000 ****
14911 OIL   -57.651000   26.469000   80.662000 O    7239 GOL     0.0000 ****
14912 OIL    45.352000   71.563000   35.389000 O    7240 GOL     0.0000 ****
14913 OIL    75.424000    8.196000  -55.102000 O    7241 GOL     0.0000 ****
14914 OIL   -61.314000  -72.080000  -20.356000 O    7242 GOL     0.0000 ****
14915 OIL    29.937000  -36.399000  -81.366000 O    7243 GOL     0.0000 ****
14916 OIL   -51.389000  -19.685000  -50.252000 O    7244 GOL     0.0000 ****
14917 OIL   -47.387000  -19.651000  -66.364000 O    7245 GOL     0.0000 ****
14918 OIL   -12.171000  -24.658000  -89.423000 O    7246 GOL     0.0000 ****
14919 OIL    86.839000  -52.606000   -5.595000 O    7247 GOL     0.0000 ****
14920 OIL   -36.347000   34.268000  -44.090000 O    7248 GOL     0.0000 ****
14921 OIL   -50.867000  -84.835000  -40.753000 O    7249 GOL     0.0000 ****
14922 OIL   -37.718000   16.658000   98.469000 O    7250 GOL     0.0000 ****
14923 OIL    19.938000   63.950000   39.659000 O    7251 GOL     0.0000 ****
14924 OIL    34.848000  -28.532000   70.555000 O    7252 GOL     0.0000 ****
14925 OIL   -65.313000  -82.469000   14.699000 O    7253 GOL     0.0000 ****
14926 OIL    32.226000  -77.047000   -4.378000 O    7254 GOL     0.0000 ****
14927 OIL   -46.194000  -73.502000   33.448000 O    7255 GOL     0.0000 ****
14928 OIL   -59.298000  -20.422000   17.401000 O    7256 GOL     0.0000 ****
14929 OIL   -71.244000  -54.016000   29.614000 O    7257 GOL     0.0000 ****
14930 OIL   -22.409000   52.016000   49.792000 O    7258 GOL     0.0000 ****
14931 OIL    19.049000  -51.258000   87.045000 O    7259 GOL     0.0000 ****
14932 OIL    18.784000  -11.656000  104.923000 O    7260 GOL     0.0000 ****
14933 OIL    -2.040000 -105.359000  -11.317000 O    7261 GOL     0.0000 ****
14934 OIL   -53.838000  -44.767000  -52.569000 O    7262 GOL     0.0000 ****
14935 OIL    49.158000  -30.379000  -78.909000 O    7263 GOL     0.0000 ****
14936 OIL   -57.104000   -3.276000  -58.116000 O    7264 GOL     0.0000 ****
14937 OIL   -47.601000   17.926000   67.975000 O    7265 GOL     0.0000 ****
14938 OIL   -74.889000   62.697000  -19.464000 O    7266 GOL     0.0000 ****
14939 OIL    -4.160000  -64.030000   74.557000 O    7267 GOL     0.0000 ****
14940 OIL   -44.165000  -71.409000   27.964000 O    7268 GOL     0.0000 ****
14941 OIL    13.395000   59.486000   54.311000 O    7269 GOL     0.0000 ****
14942 OIL    -9.613000  -61.618000   72.075000 O    7270 GOL     0.0000 ****
14943 OIL   -95.112000  -24.850000   23.272000 O    7271 GOL     0.0000 ****
14944 OIL     0.766000    9.872000  -76.993000 O    7272 GOL     0.0000 ****
14945 OIL   -41.303000    7.134000   63.203000 O    7273 GOL     0.0000 ****
14946 OIL    10.334000  -48.320000   87.924000 O    7274 GOL     0.0000 ****
14947 OIL   -63.199000   -6.132000  -55.219000 O    7275 GOL     0.0000 ****
14948 OIL     0.701000    5.890000   78.547000 O    7276 GOL     0.0000 ****
14949 OIL   -15.465000   -8.705000  -80.761000 O    7277 GOL     0.0000 ****
14950 OIL   -56.184000    8.284000   77.610000 O    7278 GOL     0.0000 ****
14951 OIL    87.212000   22.269000   47.954000 O    7279 GOL     0.0000 ****
14952 OIL    39.814000   89.474000   22.579000 O    7280 GOL     0.0000 ****
14953 OIL   -54.739000  -51.480000  -16.734000 O    7281 GOL     0.0000 ****
14954 OIL   -25.912000   36.241000  -85.674000 O    7282 GOL     0.0000 ****
14955 OIL   -34.780000   -7.657000   74.627000 O    7283 GOL     0.0000 ****
14956 OIL   -32.761000  -82.796000   54.388000 O    7284 GOL     0.0000 ****
14957 OIL   -13.557000  -76.362000  -17.065000 O    7285 GOL     0.0000 ****
14958 OIL   -56.694000   -8.710000   90.543000 O    7286 GOL     0.0000 ****
14959 OIL   -40.991000  -62.818000  -37.523000 O    7287 GOL     0.0000 ****
14960 OIL    -5.729000   75.941000  -59.933000 O    7288 GOL     0.0000 ****
14961 OIL   -53.616000   15.251000  -63.351000 O    7289 GOL     0.0000 ****
14962 OIL   -65.340000  -51.982000   34.476000 O    7290 GOL     0.0000 ****
14963 OIL    10.486000   67.438000  -79.943000 O    7291 GOL     0.0000 ****
14964 OIL    16.394000  -98.198000  -34.683000 O    7292 GOL     0.0000 ****
14965 OIL     9.618000   30.069000  -69.492000 O    7293 GOL     0.0000 ****
14966 OIL    -7.633000  -98.241000   19.866000 O    7294 GOL     0.0000 ****
14967 OIL   -53.223000    8.221000  -56.948000 O    7295 GOL     0.0000 ****
14968 OIL   -37.810000  -73.619000   46.037000 O    7296 GOL     0.0000 ****
14969 OIL   -39.918000   40.293000   41.759000 O    7297 GOL     0.0000 ****
14970 OIL    -0.708000  -96.422000    2.274000 O    7298 GOL     0.0000 ****
14971 OIL   -43.218000   29.673000   48.552000 O    7299 GOL     0.0000 ****
14972 OIL    37.273000   46.100000   83.401000 O    7300 GOL     0.0000 ****
14973 OIL    15.785000   52.658000  -61.189000 O    7301 GOL     0.0000 ****
14974 OIL   -49.088000  -76.894000  -10.895000 O    7302 GOL     0.0000 ****
14975 OIL   -91.974000  -24.927000   26.850000 O    7303 GOL     0.0000 ****
14976 OIL   -56.613000  -22.639000  -27.873000 O    7304 GOL     0.0000 ****
14977 OIL    49.443000   17.228000  -73.907000 O    7305 GOL     0.0000 ****
14978 OIL   -17.928000   56.078000  -45.868000 O    7306 GOL     0.0000 ****
14979 OIL   -48.490000   28.673000  -17.188000 O    7307 GOL     0.0000 ****
14980 OIL    53.702000  -46.694000   69.620000 O    7308 GOL     0.0000 ****
14981 OIL    45.582000  -30.659000  -82.259000 O    7309 GOL     0.0000 ****
14982 OIL   -82.525000  -60.275000  -29.328000 O    7310 GOL     0.0000 ****
14983 OIL    42.252000   86.944000  -12.200000 O    7311 GOL     0.0000 ****
14984 OIL    20.402000   71.587000  -50.975000 O    7312 GOL     0.0000 ****
14985 OIL   -75.567000   63.129000   18.154000 O    7313 GOL     0.0000 ****
14986 OIL    23.146000  -44.119000   66.770000 O    7314 GOL     0.0000 ****
14987 OIL   -16.209000  -10.563000 -100.414000 O    7315 GOL     0.0000 ****
14988 OIL   -71.771000   63.419000  -20.410000 O    7316 GOL     0.0000 ****
14989 OIL    37.002000   95.842000   26.175000 O    7317 GOL     0.0000 ****
14990 OIL   -68.092000  -70.856000   31.360000 O    7318 GOL     0.0000 ****
14991 OIL    51.328000   80.238000  -25.234000 O    7319 GOL     0.0000 ****
14992 OIL   -32.394000   61.968000   69.679000 O    7320 GOL     0.0000 ****
14993 OIL   -42.828000   -9.011000   18.894000 O    7321 GOL     0.0000 ****
14994 OIL    57.011000   80.540000  -38.437000 O    7322 GOL     0.0000 ****
14995 OIL    52.046000   55.392000  -48.338000 O    7323 GOL     0.0000 ****
14996 OIL    98.099000  -14.684000   32.341000 O    7324 GOL     0.0000 ****
14997 OIL    44.686000   74.131000  -42.350000 O    7325 GOL     0.0000 ****
14998 OIL   -11.205000   92.402000  -50.033000 O    7326 GOL     0.0000 ****
14999 OIL    88.861000  -28.990000   49.532000 O    7327 GOL     0.0000 ****
15000 OIL    17.108000   39.014000  -87.589000 O    7328 GOL     0.0000 ****
15001 OIL    30.666000  -79.446000   16.956000 O    7329 GOL     0.0000 ****
15002 OIL   -14.274000   21.447000  -96.635000 O    7330 GOL     0.0000 ****
15003 OIL    23.991000   -0.688000  -83.899000 O    7331 GOL     0.0000 ****
15004 OIL   -61.712000   57.655000  -50.147000 O    7332 GOL     0.0000 ****
15005 OIL    85.441000  -57.098000   18.043000 O    7333 GOL     0.0000 ****
15006 OIL    11.831000  -29.074000  -95.666000 O    7334 GOL     0.0000 ****
15007 OIL   -40.367000  -87.572000  -40.129000 O    7335 GOL     0.0000 ****
15008 OIL    57.577000  -45.263000  -74.409000 O    7336 GOL     0.0000 ****
15009 OIL   -95.572000  -37.038000  -23.289000 O    7337 GOL     0.0000 ****
15010 OIL    32.959000  -25.014000   96.221000 O    7338 GOL     0.0000 ****
15011 OIL    -8.889000  -73.111000   70.777000 O    7339 GOL     0.0000 ****
15012 OIL    51.481000  -71.833000  -42.292000 O    7340 GOL     0.0000 ****
15013 OIL    46.016000   33.167000   62.258000 O    7341 GOL     0.0000 ****
15014 OIL   103.741000   21.667000   12.773000 O    7342 GOL     0.0000 ****
15015 OIL    53.180000   80.739000  -29.100000 O    7343 GOL     0.0000 ****
15016 OIL   -17.745000   79.687000   29.952000 O    7344 GOL     0.0000 ****
15017 OIL     5.934000   95.605000   -8.501000 O    7345 GOL     0.0000 ****
15018 OIL    10.672000  -54.979000  -81.433000 O    7346 GOL     0.0000 ****
15019 OIL    31.711000   -4.584000   77.695000 O    7347 GOL     0.0000 ****
15020 OIL     2.422000  -78.148000  -10.872000 O    7348 GOL     0.0000 ****
15021 OIL    22.595000  -35.243000  -77.491000 O    7349 GOL     0.0000 ****
15022 OIL   -51.822000  -71.343000  -37.537000 O    7350 GOL     0.0000 ****
15023 OIL    67.988000  -32.957000   61.047000 O    7351 GOL     0.0000 ****
15024 OIL    26.967000   17.829000  -93.510000 O    7352 GOL     0.0000 ****
15025 OIL  -102.085000    3.149000   -1.515000 O    7353 GOL     0.0000 ****
15026 OIL   -93.508000   21.204000   14.857000 O    7354 GOL     0.0000 ****
15027 OIL    30.219000  -58.119000  -73.086000 O    7355 GOL     0.0000 ****
15028 OIL    -7.702000  -67.288000   41.619000 O    7356 GOL     0.0000 ****
15029 OIL   -28.341000  -45.588000  -84.474000 O    7357 GOL     0.0000 ****
15030 OIL   -61.106000    7.927000   12.034000 O    7358 GOL     0.0000 ****
15031 OIL   -10.369000   73.498000   70.123000 O    7359 GOL     0.0000 ****
15032 OIL    10.279000  -82.855000  -55.033000 O    7360 GOL     0.0000 ****
15033 OIL   -37.171000  -12.304000   90.790000 O    7361 GOL     0.0000 ****
15034 OIL   -71.979000  -52.352000   -2.995000 O    7362 GOL     0.0000 ****
15035 OIL    66.301000  -54.383000  -44.704000 O    7363 GOL     0.0000 ****
15036 OIL    25.986000   13.378000  -74.626000 O    7364 GOL     0.0000 ****
15037 OIL    -5.424000  -66.791000    1.528000 O    7365 GOL     0.0000 ****
15038 OIL   -22.963000  -24.408000   98.457000 O    7366 GOL     0.0000 ****
15039 OIL    13.767000  -87.684000  -46.660000 O    7367 GOL     0.0000 ****
15040 OIL   -99.368000  -17.967000   10.514000 O    7368 GOL     0.0000 ****
15041 OIL   -82.189000  -32.415000   40.803000 O    7369 GOL     0.0000 ****
15042 OIL   -78.353000   63.580000   15.684000 O    7370 GOL     0.0000 ****
15043 OIL   -44.813000   -6.968000  -73.743000 O    7371 GOL     0.0000 ****
15044 OIL   -17.448000  104.608000   15.914000 O    7372 GOL     0.0000 ****
15045 OIL     1.812000  -58.033000  -47.302000 O    7373 GOL     0.0000 ****
15046 OIL   -36.696000  -21.384000  -44.940000 O    7374 GOL     0.0000 ****
15047 OIL    -2.334000  -70.702000  -62.316000 O    7375 GOL     0.0000 ****
15048 OIL    70.355000  -77.542000   20.377000 O    7376 GOL     0.0000 ****
15049 OIL   -36.971000  -84.580000  -18.718000 O    7377 GOL     0.0000 ****
15050 OIL   -96.887000  -25.441000  -24.283000 O    7378 GOL     0.0000 ****
15051 OIL   -60.431000  -85.448000  -18.655000 O    7379 GOL     0.0000 ****
15052 OIL    -3.580000  -62.390000  -52.539000 O    7380 GOL     0.0000 ****
15053 OIL   -41.348000   75.699000   -1.342000 O    7381 GOL     0.0000 ****
15054 OIL    18.388000   99.761000   -8.348000 O    7382 GOL     0.0000 ****
15055 OIL   -62.615000  -14.809000  -19.318000 O    7383 GOL     0.0000 ****
15056 OIL   -59.307000   20.985000   25.180000 O    7384 GOL     0.0000 ****
15057 OIL   -37.796000  -75.382000  -28.503000 O    7385 GOL     0.0000 ****
15058 OIL   -37.299000   23.263000  -36.319000 O    7386 GOL     0.0000 ****
15059 OIL   -31.177000   48.945000  -77.268000 O    7387 GOL     0.0000 ****
15060 OIL   -67.855000  -23.024000  -14.956000 O    7388 GOL     0.0000 ****
15061 OIL     7.398000  -72.117000   34.273000 O    7389 GOL     0.0000 ****
15062 OIL   -24.369000  -57.498000  -56.257000 O    7390 GOL     0.0000 ****
15063 OIL    66.532000  -27.376000  -76.131000 O    7391 GOL     0.0000 ****
15064 OIL   -77.435000   29.133000  -48.387000 O    7392 GOL     0.0000 ****
15065 OIL   -10.952000   16.061000   81.057000 O    7393 GOL     0.0000 ****
15066 OIL   -56.084000   73.373000   24.406000 O    7394 GOL     0.0000 ****
15067 OIL   -53.401000   70.795000   45.616000 O    7395 GOL     0.0000 ****
15068 OIL   -24.014000  -87.005000   34.294000 O    7396 GOL     0.0000 ****
15069 OIL   -12.595000   82.875000  -61.600000 O    7397 GOL     0.0000 ****
15070 OIL   -59.647000   51.145000  -28.982000 O    7398 GOL     0.0000 ****
15071 OIL   -97.631000  -21.112000  -38.461000 O    7399 GOL     0.0000 ****
15072 OIL   -32.303000  -46.521000   57.823000 O    7400 GOL     0.0000 ****
15073 OIL   -76.340000    4.382000  -64.868000 O    7401 GOL     0.0000 ****
15074 OIL   -75.723000  -59.351000  -42.669000 O    7402 GOL     0.0000 ****
15075 OIL   -34.791000   38.132000   24.968000 O    7403 GOL     0.0000 ****
15076 OIL    -5.603000   80.945000  -28.085000 O    7404 GOL     0.0000 ****
15077 OIL    -2.950000  -82.958000  -63.751000 O    7405 GOL     0.0000 ****
15078 OIL   -86.704000   14.703000  -31.254000 O    7406 GOL     0.0000 ****
15079 OIL   102.619000   28.894000  -10.669000 O    7407 GOL     0.0000 ****
15080 OIL   -45.698000  -11.605000   -4.250000 O    7408 GOL     0.0000 ****
15081 OIL     1.789000  -44.795000   65.982000 O    7409 GOL     0.0000 ****
15082 OIL     7.187000  -50.557000  -86.016000 O    7410 GOL     0.0000 ****
15083 OIL    -5.204000   77.072000  -48.441000 O    7411 GOL     0.0000 ****
15084 OIL   -54.395000   41.390000  -42.937000 O    7412 GOL     0.0000 ****
15085 OIL    55.029000  -84.656000   20.616000 O    7413 GOL     0.0000 ****
15086 OIL   -34.045000  -29.975000   96.809000 O    7414 GOL     0.0000 ****
15087 OIL   -16.148000  -14.952000   62.363000 O    7415 GOL     0.0000 ****
15088 OIL   -58.776000   63.187000   24.831000 O    7416 GOL     0.0000 ****
15089 OIL    56.342000   27.072000   62.268000 O    7417 GOL     0.0000 ****
15090 OIL   -43.595000  -81.789000    7.542000 O    7418 GOL     0.0000 ****
15091 OIL   -25.022000   61.579000   65.175000 O    7419 GOL     0.0000 ****
15092 OIL    10.152000   81.773000   -8.125000 O    7420 GOL     0.0000 ****
15093 OIL    67.858000  -75.553000   18.680000 O    7421 GOL     0.0000 ****
15094 OIL     4.343000  -89.029000   43.046000 O    7422 GOL     0.0000 ****
15095 OIL   -59.722000   71.455000  -13.174000 O    7423 GOL     0.0000 ****
15096 OIL   -30.379000   17.805000  -51.132000 O    7424 GOL     0.0000 ****
15097 OIL    82.136000   -7.441000   57.167000 O    7425 GOL     0.0000 ****
15098 OIL    16.927000  -87.474000  -28.854000 O    7426 GOL     0.0000 ****
15099 OIL   -29.541000   59.661000   72.267000 O    7427 GOL     0.0000 ****
15100 OIL    95.245000  -35.790000   17.663000 O    7428 GOL     0.0000 ****
15101 OIL   -33.247000  -40.802000   71.329000 O    7429 GOL     0.0000 ****
15102 OIL   -42.119000   59.452000   55.069000 O    7430 GOL     0.0000 ****
15103 OIL   -16.544000  -50.511000   55.373000 O    7431 GOL     0.0000 ****
15104 OIL   -62.392000   60.688000  -20.134000 O    7432 GOL     0.0000 ****
15105 OIL   -73.223000   16.489000   42.189000 O    7433 GOL     0.0000 ****
15106 OIL   -58.127000  -59.720000  -63.429000 O    7434 GOL     0.0000 ****
15107 OIL    42.135000  -45.820000  -69.108000 O    7435 GOL     0.0000 ****
15108 OIL   -34.972000  -41.562000   67.890000 O    7436 GOL     0.0000 ****
15109 OIL   -91.993000   15.441000   41.417000 O    7437 GOL     0.0000 ****
15110 OIL    -4.062000  -40.543000   61.443000 O    7438 GOL     0.0000 ****
15111 OIL    -5.023000  -52.355000   60.249000 O    7439 GOL     0.0000 ****
15112 OIL   -74.480000   49.415000  -54.059000 O    7440 GOL     0.0000 ****
15113 OIL    -4.347000   36.798000  -77.541000 O    7441 GOL     0.0000 ****
15114 OIL   -38.551000  -48.637000   -0.587000 O    7442 GOL     0.0000 ****
15115 OIL   -47.395000  -51.109000   19.122000 O    7443 GOL     0.0000 ****
15116 OIL   -57.600000   55.299000   24.398000 O    7444 GOL     0.0000 ****
15117 OIL    48.168000  -51.724000   69.146000 O    7445 GOL     0.0000 ****
15118 OIL   -29.332000   86.454000   18.107000 O    7446 GOL     0.0000 ****
15119 OIL     9.436000   62.490000   62.194000 O    7447 GOL     0.0000 ****
15120 OIL   -16.680000   49.218000  -71.946000 O    7448 GOL     0.0000 ****
15121 OIL    20.013000   70.919000  -41.831000 O    7449 GOL     0.0000 ****
15122 OIL    34.061000  -47.300000  -75.111000 O    7450 GOL     0.0000 ****
15123 OIL   -40.807000   82.463000   37.851000 O    7451 GOL     0.0000 ****
15124 OIL   -44.451000  -75.077000   13.201000 O    7452 GOL     0.0000 ****
15125 OIL   -76.831000    7.663000   17.939000 O    7453 GOL     0.0000 ****
15126 OIL    35.369000  -31.443000  -91.955000 O    7454 GOL     0.0000 ****
15127 OIL   -86.971000   51.830000   30.140000 O    7455 GOL     0.0000 ****
15128 OIL   -42.917000   39.812000   43.865000 O    7456 GOL     0.0000 ****
15129 OIL   -38.028000  -95.803000   -1.401000 O    7457 GOL     0.0000 ****
15130 OIL   -39.553000   50.761000   80.705000 O    7458 GOL     0.0000 ****
15131 OIL   -55.248000   57.202000    2.808000 O    7459 GOL     0.0000 ****
15132 OIL   -44.724000   -0.323000   22.663000 O    7460 GOL     0.0000 ****
15133 OIL   -43.376000  -80.888000   53.606000 O    7461 GOL     0.0000 ****
15134 OIL    93.893000   24.421000   38.332000 O    7462 GOL     0.0000 ****
15135 OIL   -33.102000   59.299000  -73.601000 O    7463 GOL     0.0000 ****
15136 OIL    26.202000   91.180000   -5.982000 O    7464 GOL     0.0000 ****
15137 OIL    -9.547000  104.993000    9.477000 O    7465 GOL     0.0000 ****
15138 OIL     0.574000  -69.715000  -49.791000 O    7466 GOL     0.0000 ****
15139 OIL    23.269000  -70.459000   56.088000 O    7467 GOL     0.0000 ****
15140 OIL   -15.140000   -9.631000   82.391000 O    7468 GOL     0.0000 ****
15141 OIL    30.004000   95.687000  -12.987000 O    7469 GOL     0.0000 ****
15142 OIL   -73.083000   36.207000  -62.712000 O    7470 GOL     0.0000 ****
15143 OIL   -67.436000   33.012000    8.122000 O    7471 GOL     0.0000 ****
15144 OIL   -46.525000   29.396000   44.771000 O    7472 GOL     0.0000 ****
15145 OIL    19.591000  -89.541000   18.861000 O    7473 GOL     0.0000 ****
15146 OIL   -95.928000   35.794000    6.957000 O    7474 GOL     0.0000 ****
15147 OIL    42.385000   89.324000  -16.161000 O    7475 GOL     0.0000 ****
15148 OIL   -50.447000   50.094000   38.238000 O    7476 GOL     0.0000 ****
15149 OIL   -50.326000    0.597000    5.763000 O    7477 GOL     0.0000 ****
15150 OIL    10.034000   16.512000  -91.088000 O    7478 GOL     0.0000 ****
15151 OIL   -54.633000   40.362000  -67.042000 O    7479 GOL     0.0000 ****
15152 OIL   -93.395000    3.054000  -35.468000 O    7480 GOL     0.0000 ****
15153 OIL   -48.951000  -54.496000  -46.714000 O    7481 GOL     0.0000 ****
15154 OIL   -61.378000  -26.639000  -38.717000 O    7482 GOL     0.0000 ****
15155 OIL    49.363000  -62.791000  -52.925000 O    7483 GOL     0.0000 ****
15156 OIL   -81.284000   50.356000   27.609000 O    7484 GOL     0.0000 ****
15157 OIL   -12.006000  -80.308000   -7.512000 O    7485 GOL     0.0000 ****
15158 OIL  -100.369000   -0.137000  -11.930000 O    7486 GOL     0.0000 ****
15159 OIL   -17.116000  -11.866000  -67.881000 O    7487 GOL     0.0000 ****
15160 OIL   -49.227000   29.976000   -0.332000 O    7488 GOL     0.0000 ****
15161 OIL   -11.205000   57.723000  -88.465000 O    7489 GOL     0.0000 ****
15162 OIL   -87.440000    2.734000  -52.383000 O    7490 GOL     0.0000 ****
15163 OIL   -72.566000  -39.044000   58.134000 O    7491 GOL     0.0000 ****
15164 OIL     3.249000   69.784000  -77.679000 O    7492 GOL     0.0000 ****
15165 OIL    89.774000  -37.797000  -16.514000 O    7493 GOL     0.0000 ****
15166 OIL    60.199000    4.567000   77.941000 O    7494 GOL     0.0000 ****
15167 OIL   -33.154000   86.919000  -35.837000 O    7495 GOL     0.0000 ****
15168 OIL    16.912000   88.009000  -10.270000 O    7496 GOL     0.0000 ****
15169 OIL   -71.904000   72.791000  -14.785000 O    7497 GOL     0.0000 ****
15170 OIL    36.758000   71.277000   22.590000 O    7498 GOL     0.0000 ****
15171 OIL    32.219000   34.830000  -81.405000 O    7499 GOL     0.0000 ****
15172 OIL   -17.762000   15.620000   95.939000 O    7500 GOL     0.0000 ****
15173 OIL    67.278000   61.462000   11.207000 O    7501 GOL     0.0000 ****
15174 OIL    14.630000   89.529000  -22.171000 O    7502 GOL     0.0000 ****
15175 OIL    36.286000  -83.775000   14.879000 O    7503 GOL     0.0000 ****
15176 OIL    16.998000   77.963000  -14.564000 O    7504 GOL     0.0000 ****
15177 OIL    37.325000   50.870000   85.713000 O    7505 GOL     0.0000 ****
15178 OIL    51.298000  -73.494000   -9.485000 O    7506 GOL     0.0000 ****
15179 OIL    24.286000   -3.362000 -104.555000 O    7507 GOL     0.0000 ****
15180 OIL   -74.830000  -16.178000  -21.281000 O    7508 GOL     0.0000 ****
15181 OIL     7.291000   61.550000   64.058000 O    7509 GOL     0.0000 ****
15182 OIL   -30.786000   -7.217000   83.655000 O    7510 GOL     0.0000 ****
15183 OIL    82.838000  -46.693000   13.604000 O    7511 GOL     0.0000 ****
15184 OIL   -86.233000  -28.449000   27.509000 O    7512 GOL     0.0000 ****
15185 OIL    14.166000   29.286000  -97.357000 O    7513 GOL     0.0000 ****
15186 OIL    32.789000  -67.283000  -65.264000 O    7514 GOL     0.0000 ****
15187 OIL    25.728000   29.853000   97.946000 O    7515 GOL     0.0000 ****
15188 OIL    -4.713000   87.875000  -52.217000 O    7516 GOL     0.0000 ****
15189 OIL   -33.617000  -52.627000   77.257000 O    7517 GOL     0.0000 ****
15190 OIL   -40.302000  -93.882000    7.476000 O    7518 GOL     0.0000 ****
15191 OIL    -7.207000  -40.194000   67.366000 O    7519 GOL     0.0000 ****
15192 OIL   -88.602000   -0.576000  -23.569000 O    7520 GOL     0.0000 ****
15193 OIL    -3.173000  -91.958000  -33.843000 O    7521 GOL     0.0000 ****
15194 OIL    -2.421000  -55.656000   85.011000 O    7522 GOL     0.0000 ****
15195 OIL   -10.779000   72.626000   10.083000 O    7523 GOL     0.0000 ****
15196 OIL    83.320000  -61.827000    1.039000 O    7524 GOL     0.0000 ****
15197 OIL     9.010000  -92.791000  -10.264000 O    7525 GOL     0.0000 ****
15198 OIL   -54.218000  -63.286000   22.193000 O    7526 GOL     0.0000 ****
15199 OIL   -42.543000  -21.269000  -91.297000 O    7527 GOL     0.0000 ****
15200 OIL   -82.171000   15.730000   44.549000 O    7528 GOL     0.0000 ****
15201 OIL   -53.992000  -17.621000  -73.555000 O    7529 GOL     0.0000 ****
15202 OIL    23.039000  -18.599000  -93.221000 O    7530 GOL     0.0000 ****
15203 OIL     8.356000  -88.321000  -38.549000 O    7531 GOL     0.0000 ****
15204 OIL   -58.548000   49.137000  -28.742000 O    7532 GOL     0.0000 ****
15205 OIL   -52.753000  -17.118000  -12.635000 O    7533 GOL     0.0000 ****
15206 OIL    38.250000   58.806000  -72.386000 O    7534 GOL     0.0000 ****
15207 OIL   -60.071000  -16.826000   10.855000 O    7535 GOL     0.0000 ****
15208 OIL    -5.098000  -48.043000  -81.727000 O    7536 GOL     0.0000 ****
15209 OIL   -86.106000  -53.387000   33.102000 O    7537 GOL     0.0000 ****
15210 OIL   -80.152000  -33.459000  -36.367000 O    7538 GOL     0.0000 ****
15211 OIL   -16.708000   62.663000   -8.569000 O    7539 GOL     0.0000 ****
15212 OIL    22.964000  -61.144000   57.001000 O    7540 GOL     0.0000 ****
15213 OIL    13.953000  -15.791000  -96.868000 O    7541 GOL     0.0000 ****
15214 OIL   -46.092000  -14.410000   51.646000 O    7542 GOL     0.0000 ****
15215 OIL   -18.593000   90.735000   25.087000 O    7543 GOL     0.0000 ****
15216 OIL    61.061000   35.462000  -73.642000 O    7544 GOL     0.0000 ****
15217 OIL   -35.598000  -26.903000   27.921000 O    7545 GOL     0.0000 ****
15218 OIL    21.595000  -59.932000   39.901000 O    7546 GOL     0.0000 ****
15219 OIL   -40.834000   -5.652000   48.903000 O    7547 GOL     0.0000 ****
15220 OIL   -11.676000  -17.368000  -88.898000 O    7548 GOL     0.0000 ****
15221 OIL   -81.935000   54.917000  -25.227000 O    7549 GOL     0.0000 ****
15222 OIL     2.035000  -94.434000  -24.043000 O    7550 GOL     0.0000 ****
15223 OIL    35.015000  -47.295000   86.572000 O    7551 GOL     0.0000 ****
15224 OIL   -53.143000  -44.015000  -56.138000 O    7552 GOL     0.0000 ****
15225 OIL   -21.565000   25.718000   98.490000 O    7553 GOL     0.0000 ****
15226 OIL    19.525000  -34.216000  -99.478000 O    7554 GOL     0.0000 ****
15227 OIL   -82.591000  -24.512000   55.925000 O    7555 GOL     0.0000 ****
15228 OIL   -34.078000  -21.279000   42.664000 O    7556 GOL     0.0000 ****
15229 OIL    -9.639000  -55.543000   83.779000 O    7557 GOL     0.0000 ****
15230 OIL   -76.343000   63.875000   18.699000 O    7558 GOL     0.0000 ****
15231 OIL    75.975000  -19.599000   60.229000 O    7559 GOL     0.0000 ****
15232 OIL   -38.012000  -42.778000  -54.591000 O    7560 GOL     0.0000 ****
15233 OIL   -60.514000   12.915000    7.318000 O    7561 GOL     0.0000 ****
15234 OIL   -65.996000  -60.508000  -58.345000 O    7562 GOL     0.0000 ****
15235 OIL   -59.117000   48.924000   42.106000 O    7563 GOL     0.0000 ****
15236 OIL   101.313000    3.888000   14.890000 O    7564 GOL     0.0000 ****
15237 OIL   -41.449000  -90.556000    9.987000 O    7565 GOL     0.0000 ****
15238 OIL   -33.776000  -81.459000   21.768000 O    7566 GOL     0.0000 ****
15239 OIL   -54.080000  -53.872000  -45.284000 O    7567 GOL     0.0000 ****
15240 OIL   -58.320000   53.070000   70.918000 O    7568 GOL     0.0000 ****
15241 OIL    34.227000   86.378000   32.011000 O    7569 GOL     0.0000 ****
15242 OIL   -83.008000    0.881000    9.629000 O    7570 GOL     0.0000 ****
15243 OIL   -53.725000   13.003000  -22.943000 O    7571 GOL     0.0000 ****
15244 OIL    23.346000   28.070000   85.258000 O    7572 GOL     0.0000 ****
15245 OIL    67.902000  -52.674000   34.348000 O    7573 GOL     0.0000 ****
15246 OIL   -49.225000  -23.971000  -30.663000 O    7574 GOL     0.0000 ****
15247 OIL   -33.329000   66.287000  -76.513000 O    7575 GOL     0.0000 ****
15248 OIL    16.672000  -81.463000   55.318000 O    7576 GOL     0.0000 ****
15249 OIL   -44.353000   56.761000  -78.184000 O    7577 GOL     0.0000 ****
15250 OIL   -93.764000   44.460000   17.914000 O    7578 GOL     0.0000 ****
15251 OIL    38.476000  -40.584000  -78.346000 O    7579 GOL     0.0000 ****
15252 OIL   -18.064000   51.486000   80.008000 O    7580 GOL     0.0000 ****
15253 OIL   -53.887000   65.327000  -27.941000 O    7581 GOL     0.0000 ****
15254 OIL    92.609000  -42.470000   26.999000 O    7582 GOL     0.0000 ****
15255 OIL   -62.814000    7.929000   52.731000 O    7583 GOL     0.0000 ****
15256 OIL    41.957000   18.498000   87.463000 O    7584 GOL     0.0000 ****
15257 OIL   -98.176000  -17.685000   -7.433000 O    7585 GOL     0.0000 ****
15258 OIL    43.446000   78.049000   45.886000 O    7586 GOL     0.0000 ****
15259 OIL   -29.154000  -51.533000   42.829000 O    7587 GOL     0.0000 ****
15260 OIL   -58.751000   62.271000   44.493000 O    7588 GOL     0.0000 ****
15261 OIL   -52.235000   20.253000   71.711000 O    7589 GOL     0.0000 ****
15262 OIL   -23.614000  -41.438000   43.279000 O    7590 GOL     0.0000 ****
15263 OIL    -4.809000   74.073000   55.119000 O    7591 GOL     0.0000 ****
15264 OIL    54.567000  -74.936000   49.359000 O    7592 GOL     0.0000 ****
15265 OIL    49.532000    7.457000   94.262000 O    7593 GOL     0.0000 ****
15266 OIL   -20.423000  -47.683000   80.349000 O    7594 GOL     0.0000 ****
15267 OIL     0.888000   53.255000   51.782000 O    7595 GOL     0.0000 ****
15268 OIL    -6.720000  -28.718000  -83.980000 O    7596 GOL     0.0000 ****
15269 OIL   -67.819000  -80.259000  -11.029000 O    7597 GOL     0.0000 ****
15270 OIL  -103.190000   22.281000  -18.224000 O    7598 GOL     0.0000 ****
15271 OIL    14.728000  -71.255000   43.717000 O    7599 GOL     0.0000 ****
15272 OIL    56.421000  -78.021000   36.883000 O    7600 GOL     0.0000 ****
15273 OIL    67.170000   17.248000  -76.803000 O    7601 GOL     0.0000 ****
15274 OIL   -32.599000   64.782000  -25.538000 O    7602 GOL     0.0000 ****
15275 OIL   -40.162000   -4.914000   80.005000 O    7603 GOL     0.0000 ****
15276 OIL     6.461000  -73.411000   49.284000 O    7604 GOL     0.0000 ****
15277 OIL     1.592000  -93.903000   33.202000 O    7605 GOL     0.0000 ****
15278 OIL     2.844000   55.857000  -78.915000 O    7606 GOL     0.0000 ****
15279 OIL    69.805000    4.835000   61.683000 O    7607 GOL     0.0000 ****
15280 OIL    28.528000   17.655000   80.823000 O    7608 GOL     0.0000 ****
15281 OIL   -38.141000   28.266000  -73.156000 O    7609 GOL     0.0000 ****
15282 OIL   -64.213000  -68.978000   51.310000 O    7610 GOL     0.0000 ****
15283 OIL   -25.380000  -71.606000    6.039000 O    7611 GOL     0.0000 ****
15284 OIL   -44.182000  -57.121000   54.488000 O    7612 GOL     0.0000 ****
15285 OIL   -33.236000  -83.850000   41.549000 O    7613 GOL     0.0000 ****
15286 OIL   -48.102000  -21.426000  -40.639000 O    7614 GOL     0.0000 ****
15287 OIL   -47.487000    8.292000   71.227000 O    7615 GOL     0.0000 ****
15288 OIL    91.029000   35.754000    8.161000 O    7616 GOL     0.0000 ****
15289 OIL    54.985000   29.049000   74.439000 O    7617 GOL     0.0000 ****
15290 OIL   -31.918000   64.534000    6.015000 O    7618 GOL     0.0000 ****
15291 OIL     9.471000  102.418000   12.387000 O    7619 GOL     0.0000 ****
15292 OIL   -57.120000  -61.380000   32.426000 O    7620 GOL     0.0000 ****
15293 OIL    17.137000   74.599000   20.295000 O    7621 GOL     0.0000 ****
15294 OIL    14.547000   -2.181000  -93.018000 O    7622 GOL     0.0000 ****
15295 OIL   -14.210000   85.116000  -31.759000 O    7623 GOL     0.0000 ****
15296 OIL   -82.853000  -25.242000   39.790000 O    7624 GOL     0.0000 ****
15297 OIL   -23.696000   93.078000   16.563000 O    7625 GOL     0.0000 ****
15298 OIL   -54.172000  -11.061000  -89.497000 O    7626 GOL     0.0000 ****
15299 OIL    43.409000  -26.079000   75.667000 O    7627 GOL     0.0000 ****
15300 OIL   -58.561000   62.359000   52.044000 O    7628 GOL     0.0000 ****
15301 OIL    69.532000   49.433000   35.314000 O    7629 GOL     0.0000 ****
15302 OIL    18.108000   56.353000   82.358000 O    7630 GOL     0.0000 ****
15303 OIL    -0.345000  -76.331000  -40.794000 O    7631 GOL     0.0000 ****
15304 OIL    -9.861000   20.381000   87.730000 O    7632 GOL     0.0000 ****
15305 OIL   -42.343000  -49.176000   -9.142000 O    7633 GOL     0.0000 ****
15306 OIL   -36.819000   25.502000  -77.179000 O    7634 GOL     0.0000 ****
15307 OIL   -59.091000    8.649000  -50.852000 O    7635 GOL     0.0000 ****
15308 OIL    17.471000  -72.077000  -60.385000 O    7636 GOL     0.0000 ****
15309 OIL   -68.262000   56.833000   -1.121000 O    7637 GOL     0.0000 ****
15310 OIL   -68.857000   51.550000  -34.023000 O    7638 GOL     0.0000 ****
15311 OIL   -48.612000   48.744000  -79.439000 O    7639 GOL     0.0000 ****
15312 OIL    12.649000   97.530000  -22.707000 O    7640 GOL     0.0000 ****
15313 OIL    11.446000   12.670000  -88.525000 O    7641 GOL     0.0000 ****
15314 OIL    50.368000   53.207000   74.149000 O    7642 GOL     0.0000 ****
15315 OIL   -53.651000   58.864000  -10.430000 O    7643 GOL     0.0000 ****
15316 OIL   -78.074000   13.122000  -69.669000 O    7644 GOL     0.0000 ****
15317 OIL    97.775000  -29.777000    1.069000 O    7645 GOL     0.0000 ****
15318 OIL   -21.269000   47.273000  -92.287000 O    7646 GOL     0.0000 ****
15319 OIL   -48.170000  -76.922000   22.527000 O    7647 GOL     0.0000 ****
15320 OIL   -93.301000   43.356000  -17.188000 O    7648 GOL     0.0000 ****
15321 OIL   -14.334000   84.765000  -18.850000 O    7649 GOL     0.0000 ****
15322 OIL    87.973000  -60.256000    3.440000 O    7650 GOL     0.0000 ****
15323 OIL    33.633000  -77.122000   20.475000 O    7651 GOL     0.0000 ****
15324 OIL   -32.960000   92.551000  -35.276000 O    7652 GOL     0.0000 ****
15325 OIL   -21.112000  -48.446000   40.736000 O    7653 GOL     0.0000 ****
15326 OIL   -62.759000   19.342000  -71.345000 O    7654 GOL     0.0000 ****
15327 OIL   -32.336000  -43.402000  -58.028000 O    7655 GOL     0.0000 ****
15328 OIL   -38.048000   32.148000   59.572000 O    7656 GOL     0.0000 ****
15329 OIL    43.439000  -86.401000   21.939000 O    7657 GOL     0.0000 ****
15330 OIL   -48.469000   56.700000   55.414000 O    7658 GOL     0.0000 ****
15331 OIL    37.239000  -69.293000   53.612000 O    7659 GOL     0.0000 ****
15332 OIL   -72.168000  -29.779000   36.801000 O    7660 GOL     0.0000 ****
15333 OIL   -97.103000   -2.470000  -33.189000 O    7661 GOL     0.0000 ****
15334 OIL    -8.593000   28.334000  -77.774000 O    7662 GOL     0.0000 ****
15335 OIL   -42.963000   76.993000  -55.891000 O    7663 GOL     0.0000 ****
15336 OIL    14.482000    4.223000   88.066000 O    7664 GOL     0.0000 ****
15337 OIL    16.115000   81.923000  -24.012000 O    7665 GOL     0.0000 ****
15338 OIL   -85.416000   50.962000  -34.709000 O    7666 GOL     0.0000 ****
15339 OIL   -66.213000  -24.699000   -1.659000 O    7667 GOL     0.0000 ****
15340 OIL   -79.749000  -52.176000    2.248000 O    7668 GOL     0.0000 ****
15341 OIL   -38.158000   25.637000   63.292000 O    7669 GOL     0.0000 ****
15342 OIL   -29.679000    2.650000  -89.446000 O    7670 GOL     0.0000 ****
15343 OIL   -92.459000  -20.651000  -23.040000 O    7671 GOL     0.0000 ****
15344 OIL    54.888000   67.385000   24.951000 O    7672 GOL     0.0000 ****
15345 OIL    37.279000  -47.977000  -77.363000 O    7673 GOL     0.0000 ****
15346 OIL    -1.509000   53.582000   89.754000 O    7674 GOL     0.0000 ****
15347 OIL    51.223000   53.402000   56.649000 O    7675 GOL     0.0000 ****
15348 OIL   -95.304000   -3.193000   29.034000 O    7676 GOL     0.0000 ****
15349 OIL    38.337000  -48.377000   82.501000 O    7677 GOL     0.0000 ****
15350 OIL   -39.357000  -88.586000  -39.249000 O    7678 GOL     0.0000 ****
15351 OIL   -66.182000   62.362000  -48.561000 O    7679 GOL     0.0000 ****
15352 OIL   -55.360000    3.821000   46.296000 O    7680 GOL     0.0000 ****
15353 OIL    30.782000  -99.748000   -6.321000 O    7681 GOL     0.0000 ****
15354 OIL    28.283000    3.900000  -86.632000 O    7682 GOL     0.0000 ****
15355 OIL   -22.270000   81.892000   31.332000 O    7683 GOL     0.0000 ****
15356 OIL   -12.038000   21.266000   91.085000 O    7684 GOL     0.0000 ****
15357 OIL   -35.500000  -34.229000   81.287000 O    7685 GOL     0.0000 ****
15358 OIL   -21.235000   73.024000  -18.148000 O    7686 GOL     0.0000 ****
15359 OIL    72.393000   59.540000   23.450000 O    7687 GOL     0.0000 ****
15360 OIL    22.304000  -87.661000  -28.951000 O    7688 GOL     0.0000 ****
15361 OIL   -80.571000   43.485000  -15.075000 O    7689 GOL     0.0000 ****
15362 OIL    36.780000   43.551000  -78.709000 O    7690 GOL     0.0000 ****
15363 OIL    -9.801000   44.268000  -53.997000 O    7691 GOL     0.0000 ****
15364 OIL    -1.343000  -98.993000   32.453000 O    7692 GOL     0.0000 ****
15365 OIL    11.300000  -78.269000   13.314000 O    7693 GOL     0.0000 ****
15366 OIL   -37.085000  -39.303000   76.143000 O    7694 GOL     0.0000 ****
15367 OIL    -1.123000   98.529000   33.385000 O    7695 GOL     0.0000 ****
15368 OIL   -67.035000  -19.906000   63.887000 O    7696 GOL     0.0000 ****
15369 OIL   -50.477000  -79.872000   35.550000 O    7697 GOL     0.0000 ****
15370 OIL   -69.925000  -46.780000   60.347000 O    7698 GOL     0.0000 ****
15371 OIL   -15.776000  -37.718000  -61.699000 O    7699 GOL     0.0000 ****
15372 OIL   -61.853000   19.121000   10.358000 O    7700 GOL     0.0000 ****
15373 OIL   -53.988000   60.669000  -66.963000 O    7701 GOL     0.0000 ****
15374 OIL    32.335000   24.807000  -96.632000 O    7702 GOL     0.0000 ****
15375 OIL   -23.726000   -2.346000  -79.003000 O    7703 GOL     0.0000 ****
15376 OIL   -81.909000   15.196000   35.832000 O    7704 GOL     0.0000 ****
15377 OIL   -51.903000    4.311000   72.696000 O    7705 GOL     0.0000 ****
15378 OIL    28.157000  -76.210000   39.581000 O    7706 GOL     0.0000 ****
15379 OIL    49.276000  -51.729000  -48.517000 O    7707 GOL     0.0000 ****
15380 OIL   -20.146000  -44.125000  -61.447000 O    7708 GOL     0.0000 ****
15381 OIL   -12.647000  -85.958000   22.526000 O    7709 GOL     0.0000 ****
15382 OIL    52.506000  -44.073000   61.667000 O    7710 GOL     0.0000 ****
15383 OIL    31.386000  100.536000   -7.792000 O    7711 GOL     0.0000 ****
15384 OIL    -4.264000  -72.081000  -62.707000 O    7712 GOL     0.0000 ****
15385 OIL   -32.330000   77.465000  -39.635000 O    7713 GOL     0.0000 ****
15386 OIL    13.605000  -95.086000   26.526000 O    7714 GOL     0.0000 ****
15387 OIL   -34.529000   36.230000  -49.065000 O    7715 GOL     0.0000 ****
15388 OIL   -80.494000   21.419000    2.657000 O    7716 GOL     0.0000 ****
15389 OIL   -88.986000  -12.137000  -44.791000 O    7717 GOL     0.0000 ****
15390 OIL    42.031000   66.636000  -60.048000 O    7718 GOL     0.0000 ****
15391 OIL   -68.778000  -46.028000  -67.020000 O    7719 GOL     0.0000 ****
15392 OIL     3.579000   21.858000  -78.990000 O    7720 GOL     0.0000 ****
15393 OIL   -49.635000   66.557000   30.410000 O    7721 GOL     0.0000 ****
15394 OIL   -57.098000  -88.219000   21.437000 O    7722 GOL     0.0000 ****
15395 OIL   -50.383000  -79.095000    9.851000 O    7723 GOL     0.0000 ****
15396 OIL   -40.913000   50.230000  -26.366000 O    7724 GOL     0.0000 ****
15397 OIL   -63.623000   42.238000  -10.703000 O    7725 GOL     0.0000 ****
15398 OIL   -13.168000  -78.541000  -67.511000 O    7726 GOL     0.0000 ****
15399 OIL    13.740000  -78.737000   17.375000 O    7727 GOL     0.0000 ****
15400 OIL   -30.210000   71.428000   12.784000 O    7728 GOL     0.0000 ****
15401 OIL    56.859000  -85.487000   -4.652000 O    7729 GOL     0.0000 ****
15402 OIL   -35.323000   31.576000   51.998000 O    7730 GOL     0.0000 ****
15403 OIL     6.096000  -74.841000  -31.539000 O    7731 GOL     0.0000 ****
15404 OIL    62.082000  -44.095000  -49.962000 O    7732 GOL     0.0000 ****
15405 OIL    34.347000    7.065000   79.844000 O    7733 GOL     0.0000 ****
15406 OIL    63.563000   44.968000  -60.648000 O    7734 GOL     0.0000 ****
15407 OIL   -57.740000   28.917000  -27.374000 O    7735 GOL     0.0000 ****
15408 OIL    47.347000   82.726000   22.392000 O    7736 GOL     0.0000 ****
15409 OIL   -79.761000   30.701000   19.597000 O    7737 GOL     0.0000 ****
15410 OIL    62.362000  -76.297000  -25.385000 O    7738 GOL     0.0000 ****
15411 OIL   -43.098000  -85.429000   -8.145000 O    7739 GOL     0.0000 ****
15412 OIL   -41.547000   45.859000   72.478000 O    7740 GOL     0.0000 ****
15413 OIL   -23.538000  -29.871000   52.340000 O    7741 GOL     0.0000 ****
15414 OIL    -4.672000   86.165000   -0.082000 O    7742 GOL     0.0000 ****
15415 OIL    41.962000   91.938000    5.516000 O    7743 GOL     0.0000 ****
15416 OIL   -65.484000  -35.902000  -46.435000 O    7744 GOL     0.0000 ****
15417 OIL    -6.747000   86.026000   10.170000 O    7745 GOL     0.0000 ****
15418 OIL    35.954000   85.485000  -18.303000 O    7746 GOL     0.0000 ****
15419 OIL   -11.995000  -47.365000   71.877000 O    7747 GOL     0.0000 ****
15420 OIL    11.187000   30.448000   91.059000 O    7748 GOL     0.0000 ****
15421 OIL   -32.262000  -82.172000  -40.330000 O    7749 GOL     0.0000 ****
15422 OIL    89.263000  -37.787000  -36.112000 O    7750 GOL     0.0000 ****
15423 OIL   -63.621000  -32.633000  -45.348000 O    7751 GOL     0.0000 ****
15424 OIL    28.050000   73.857000  -70.359000 O    7752 GOL     0.0000 ****
15425 OIL    23.634000   25.255000  -91.845000 O    7753 GOL     0.0000 ****
15426 OIL     9.093000   29.853000   80.306000 O    7754 GOL     0.0000 ****
15427 OIL    11.962000  -74.184000   39.213000 O    7755 GOL     0.0000 ****
15428 OIL   -74.592000  -17.458000  -31.035000 O    7756 GOL     0.0000 ****
15429 OIL    13.046000  -39.889000  -63.225000 O    7757 GOL     0.0000 ****
15430 OIL   -69.566000  -62.511000   30.905000 O    7758 GOL     0.0000 ****
15431 OIL   -35.161000   37.124000  -84.719000 O    7759 GOL     0.0000 ****
15432 OIL   -37.604000   13.487000   63.437000 O    7760 GOL     0.0000 ****
15433 OIL   -39.529000  -36.556000   77.851000 O    7761 GOL     0.0000 ****
15434 OIL    33.080000    3.676000  -76.257000 O    7762 GOL     0.0000 ****
15435 OIL   -26.586000   79.454000  -21.571000 O    7763 GOL     0.0000 ****
15436 OIL   -17.806000  -79.572000  -43.578000 O    7764 GOL     0.0000 ****
15437 OIL    -6.075000  -12.704000  -72.016000 O    7765 GOL     0.0000 ****
15438 OIL    31.684000   17.695000   92.068000 O    7766 GOL     0.0000 ****
15439 OIL   -25.775000    8.708000  -57.085000 O    7767 GOL     0.0000 ****
15440 OIL    -6.448000  -93.568000   23.105000 O    7768 GOL     0.0000 ****
15441 OIL   -24.743000   48.848000  -61.770000 O    7769 GOL     0.0000 ****
15442 OIL    88.621000   40.846000  -33.584000 O    7770 GOL     0.0000 ****
15443 OIL    40.274000   44.430000  -73.595000 O    7771 GOL     0.0000 ****
15444 OIL    87.339000  -13.056000  -39.233000 O    7772 GOL     0.0000 ****
15445 OIL     2.992000  -59.717000   85.784000 O    7773 GOL     0.0000 ****
15446 OIL   -40.360000  -58.630000   24.639000 O    7774 GOL     0.0000 ****
15447 OIL   -53.974000  -64.251000   51.621000 O    7775 GOL     0.0000 ****
15448 OIL   -29.212000  -38.097000   53.876000 O    7776 GOL     0.0000 ****
15449 OIL   -21.027000   47.641000  -85.246000 O    7777 GOL     0.0000 ****
15450 OIL   -74.276000   28.523000   -5.274000 O    7778 GOL     0.0000 ****
15451 OIL   -15.052000   55.967000   32.317000 O    7779 GOL     0.0000 ****
15452 OIL    71.240000   66.617000   -4.828000 O    7780 GOL     0.0000 ****
15453 OIL   -96.878000   -1.926000   12.152000 O    7781 GOL     0.0000 ****
15454 OIL    29.564000  -93.608000  -20.383000 O    7782 GOL     0.0000 ****
15455 OIL    37.363000  -24.822000   85.275000 O    7783 GOL     0.0000 ****
15456 OIL   -66.450000  -51.679000  -14.131000 O    7784 GOL     0.0000 ****
15457 OIL   -22.731000   70.131000  -49.663000 O    7785 GOL     0.0000 ****
15458 OIL   -14.300000   29.264000  101.825000 O    7786 GOL     0.0000 ****
15459 OIL   -45.781000  -28.519000  -87.762000 O    7787 GOL     0.0000 ****
15460 OIL    59.005000  -83.118000   23.319000 O    7788 GOL     0.0000 ****
15461 OIL    21.880000    7.360000  -73.596000 O    7789 GOL     0.0000 ****
15462 OIL   -67.198000  -11.528000   -2.480000 O    7790 GOL     0.0000 ****
15463 OIL   -19.466000   55.611000  -88.163000 O    7791 GOL     0.0000 ****
15464 OIL   -81.568000   11.096000  -11.623000 O    7792 GOL     0.0000 ****
15465 OIL   -35.018000  -51.082000   29.466000 O    7793 GOL     0.0000 ****
15466 OIL   -99.307000   27.683000  -14.508000 O    7794 GOL     0.0000 ****
15467 OIL   -73.702000  -26.461000   44.783000 O    7795 GOL     0.0000 ****
15468 OIL   -61.391000  -17.852000  -60.784000 O    7796 GOL     0.0000 ****
15469 OIL   -50.648000   24.016000   37.365000 O    7797 GOL     0.0000 ****
15470 OIL     3.784000  -66.123000   58.940000 O    7798 GOL     0.0000 ****
15471 OIL    40.725000  -38.359000  -80.849000 O    7799 GOL     0.0000 ****
15472 OIL   -16.946000 -102.658000  -23.303000 O    7800 GOL     0.0000 ****
15473 OIL   -72.211000   22.172000   66.926000 O    7801 GOL     0.0000 ****
15474 OIL    63.357000   72.192000  -30.168000 O    7802 GOL     0.0000 ****
15475 OIL     2.100000  -97.924000   37.642000 O    7803 GOL     0.0000 ****
15476 OIL   -70.353000   -0.827000    7.854000 O    7804 GOL     0.0000 ****
15477 OIL   -31.076000   48.478000  -22.414000 O    7805 GOL     0.0000 ****
15478 OIL   -27.401000   31.792000   54.442000 O    7806 GOL     0.0000 ****
15479 OIL   -70.601000   13.103000   49.567000 O    7807 GOL     0.0000 ****
15480 OIL   -25.165000   -7.154000  -79.103000 O    7808 GOL     0.0000 ****
15481 OIL    36.182000   93.633000   31.617000 O    7809 GOL     0.0000 ****
15482 OIL    49.738000    4.025000  -85.816000 O    7810 GOL     0.0000 ****
15483 OIL   -19.749000   54.574000  -51.655000 O    7811 GOL     0.0000 ****
15484 OIL   -57.545000   38.106000  -74.109000 O    7812 GOL     0.0000 ****
15485 OIL   -23.341000   77.313000  -25.506000 O    7813 GOL     0.0000 ****
15486 OIL   -53.972000  -56.917000   42.982000 O    7814 GOL     0.0000 ****
15487 OIL   -48.680000  -43.454000   -8.068000 O    7815 GOL     0.0000 ****
15488 OIL    -8.671000   12.600000  105.709000 O    7816 GOL     0.0000 ****
15489 OIL   -44.920000   25.986000  -68.598000 O    7817 GOL     0.0000 ****
15490 OIL    34.767000   14.811000  -86.823000 O    7818 GOL     0.0000 ****
15491 OIL   -38.408000   36.687000  -76.000000 O    7819 GOL     0.0000 ****
15492 OIL   -54.453000  -76.628000  -32.393000 O    7820 GOL     0.0000 ****
15493 OIL   -57.328000   35.133000   61.782000 O    7821 GOL     0.0000 ****
15494 OIL   -54.764000  -48.849000   48.280000 O    7822 GOL     0.0000 ****
15495 OIL   -49.141000  -14.011000  -78.314000 O    7823 GOL     0.0000 ****
15496 OIL     0.309000  -56.375000  -73.984000 O    7824 GOL     0.0000 ****
15497 OIL    43.442000  -83.201000  -27.895000 O    7825 GOL     0.0000 ****
15498 OIL    75.290000   60.206000   20.089000 O    7826 GOL     0.0000 ****
15499 OIL    93.827000   16.971000   34.395000 O    7827 GOL     0.0000 ****
15500 OIL    10.098000  -90.361000  -47.843000 O    7828 GOL     0.0000 ****
15501 OIL   -45.100000  -95.020000  -19.421000 O    7829 GOL     0.0000 ****
15502 OIL   -56.806000  -64.570000  -59.886000 O    7830 GOL     0.0000 ****
15503 OIL    -0.059000   -2.069000  -79.184000 O    7831 GOL     0.0000 ****
15504 OIL    46.589000   72.890000   48.302000 O    7832 GOL     0.0000 ****
15505 OIL   -35.382000    6.687000  -51.827000 O    7833 GOL     0.0000 ****
15506 OIL    90.763000  -23.181000   43.607000 O    7834 GOL     0.0000 ****
15507 OIL   -33.714000  -35.848000   77.463000 O    7835 GOL     0.0000 ****
15508 OIL   -25.521000   72.242000  -71.492000 O    7836 GOL     0.0000 ****
@<TRIPOS>BOND
    1     2     3 1
    2     1     2 1
    3     5     6 1
    4     4     5 1
    5     8     9 1
    6     7     8 1
    7    11    12 1
    8    10    11 1
    9    14    15 1
   10    13    14 1
   11    17    18 1
   12    16    17 1
   13    20    21 1
   14    19    20 1
   15    23    24 1
   16    22    23 1
   17    26    27 1
   18    25    26 1
   19    29    30 1
   20    28    29 1
   21    32    33 1
   22    31    32 1
   23    35    36 1
   24    34    35 1
   25    38    39 1
   26    37    38 1
   27    41    42 1
   28    40    41 1
   29    44    45 1
   30    43    44 1
   31    47    48 1
   32    46    47 1
   33    50    51 1
   34    49    50 1
   35    53    54 1
   36    52    53 1
   37    56    57 1
   38    55    56 1
   39    59    60 1
   40    58    59 1
   41    62    63 1
   42    61    62 1
   43    65    66 1
   44    64    65 1
   45    68    69 1
   46    67    68 1
   47    71    72 1
   48    70    71 1
   49    74    75 1
   50    73    74 1
   51    77    78 1
   52    76    77 1
   53    80    81 1
   54    79    80 1
   55    83    84 1
   56    82    83 1
   57    86    87 1
   58    85    86 1
   59    89    90 1
   60    88    89 1
   61    92    93 1
   62    91    92 1
   63    95    96 1
   64    94    95 1
   65    98    99 1
   66    97    98 1
   67   101   102 1
   68   100   101 1
   69   104   105 1
   70   103   104 1
   71   107   108 1
   72   106   107 1
   73   110   111 1
   74   109   110 1
   75   113   114 1
   76   112   113 1
   77   116   117 1
   78   115   116 1
   79   119   120 1
   80   118   119 1
   81   122   123 1
   82   121   122 1
   83   125   126 1
   84   124   125 1
   85   128   129 1
   86   127   128 1
   87   131   132 1
   88   130   131 1
   89   134   135 1
   90   133   134 1
   91   137   138 1
   92   136   137 1
   93   140   141 1
   94   139   140 1
   95   143   144 1
   96   142   143 1
   97   146   147 1
   98   145   146 1
   99   149   150 1
  100   148   149 1
  101   152   153 1
  102   151   152 1
  103   155   156 1
  104   154   155 1
  105   158   159 1
  106   157   158 1
  107   161   162 1
  108   160   161 1
  109   164   165 1
  110   163   164 1
  111   167   168 1
  112   166   167 1
  113   170   171 1
  114   169   170 1
  115   173   174 1
  116   172   173 1
  117   176   177 1
  118   175   176 1
  119   179   180 1
  120   178   179 1
  121   182   183 1
  122   181   182 1
  123   185   186 1
  124   184   185 1
  125   188   189 1
  126   187   188 1
  127   191   192 1
  128   190   191 1
  129   194   195 1
  130   193   194 1
  131   197   198 1
  132   196   197 1
  133   200   201 1
  134   199   200 1
  135   203   204 1
  136   202   203 1
  137   206   207 1
  138   205   206 1
  139   209   210 1
  140   208   209 1
  141   212   213 1
  142   211   212 1
  143   215   216 1
  144   214   215 1
  145   218   219 1
  146   217   218 1
  147   221   222 1
  148   220   221 1
  149   224   225 1
  150   223   224 1
  151   227   228 1
  152   226   227 1
  153   230   231 1
  154   229   230 1
  155   233   234 1
  156   232   233 1
  157   236   237 1
  158   235   236 1
  159   239   240 1
  160   238   239 1
  161   242   243 1
  162   241   242 1
  163   245   246 1
  164   244   245 1
  165   248   249 1
  166   247   248 1
  167   251   252 1
  168   250   251 1
  169   254   255 1
  170   253   254 1
  171   257   258 1
  172   256   257 1
  173   260   261 1
  174   259   260 1
  175   263   264 1
  176   262   263 1
  177   266   267 1
  178   265   266 1
  179   269   270 1
  180   268   269 1
  181   272   273 1
  182   271   272 1
  183   275   276 1
  184   274   275 1
  185   278   279 1
  186   277   278 1
  187   281   282 1
  188   280   281 1
  189   284   285 1
  190   283   284 1
  191   287   288 1
  192   286   287 1
  193   290   291 1
  194   289   290 1
  195   293   294 1
  196   292   293 1
  197   296   297 1
  198   295   296 1
  199   299   300 1
  200   298   299 1
  201   302   303 1
  202   301   302 1
  203   305   306 1
  204   304   305 1
  205   308   309 1
  206   307   308 1
  207   311   312 1
  208   310   311 1
  209   314   315 1
  210   313   314 1
  211   317   318 1
  212   316   317 1
  213   320   321 1
  214   319   320 1
  215   323   324 1
  216   322   323 1
  217   326   327 1
  218   325   326 1
  219   329   330 1
  220   328   329 1
  221   332   333 1
  222   331   332 1
  223   335   336 1
  224   334   335 1
  225   338   339 1
  226   337   338 1
  227   341   342 1
  228   340   341 1
  229   344   345 1
  230   343   344 1
  231   347   348 1
  232   346   347 1
  233   350   351 1
  234   349   350 1
  235   353   354 1
  236   352   353 1
  237   356   357 1
  238   355   356 1
  239   359   360 1
  240   358   359 1
  241   362   363 1
  242   361   362 1
  243   365   366 1
  244   364   365 1
  245   368   369 1
  246   367   368 1
  247   371   372 1
  248   370   371 1
  249   374   375 1
  250   373   374 1
  251   377   378 1
  252   376   377 1
  253   380   381 1
  254   379   380 1
  255   383   384 1
  256   382   383 1
  257   386   387 1
  258   385   386 1
  259   389   390 1
  260   388   389 1
  261   392   393 1
  262   391   392 1
  263   395   396 1
  264   394   395 1
  265   398   399 1
  266   397   398 1
  267   401   402 1
  268   400   401 1
  269   404   405 1
  270   403   404 1
  271   407   408 1
  272   406   407 1
  273   410   411 1
  274   409   410 1
  275   413   414 1
  276   412   413 1
  277   416   417 1
  278   415   416 1
  279   419   420 1
  280   418   419 1
  281   422   423 1
  282   421   422 1
  283   425   426 1
  284   424   425 1
  285   428   429 1
  286   427   428 1
  287   431   432 1
  288   430   431 1
  289   434   435 1
  290   433   434 1
  291   437   438 1
  292   436   437 1
  293   440   441 1
  294   439   440 1
  295   443   444 1
  296   442   443 1
  297   446   447 1
  298   445   446 1
  299   449   450 1
  300   448   449 1
  301   452   453 1
  302   451   452 1
  303   455   456 1
  304   454   455 1
  305   458   459 1
  306   457   458 1
  307   461   462 1
  308   460   461 1
  309   464   465 1
  310   463   464 1
  311   467   468 1
  312   466   467 1
  313   470   471 1
  314   469   470 1
  315   473   474 1
  316   472   473 1
  317   476   477 1
  318   475   476 1
  319   479   480 1
  320   478   479 1
  321   482   483 1
  322   481   482 1
  323   485   486 1
  324   484   485 1
  325   488   489 1
  326   487   488 1
  327   491   492 1
  328   490   491 1
  329   494   495 1
  330   493   494 1
  331   497   498 1
  332   496   497 1
  333   500   501 1
  334   499   500 1
  335   503   504 1
  336   502   503 1
  337   506   507 1
  338   505   506 1
  339   509   510 1
  340   508   509 1
  341   512   513 1
  342   511   512 1
  343   515   516 1
  344   514   515 1
  345   518   519 1
  346   517   518 1
  347   521   522 1
  348   520   521 1
  349   524   525 1
  350   523   524 1
  351   527   528 1
  352   526   527 1
  353   530   531 1
  354   529   530 1
  355   533   534 1
  356   532   533 1
  357   536   537 1
  358   535   536 1
  359   539   540 1
  360   538   539 1
  361   542   543 1
  362   541   542 1
  363   545   546 1
  364   544   545 1
  365   548   549 1
  366   547   548 1
  367   551   552 1
  368   550   551 1
  369   554   555 1
  370   553   554 1
  371   557   558 1
  372   556   557 1
  373   560   561 1
  374   559   560 1
  375   563   564 1
  376   562   563 1
  377   566   567 1
  378   565   566 1
  379   569   570 1
  380   568   569 1
  381   572   573 1
  382   571   572 1
  383   575   576 1
  384   574   575 1
  385   578   579 1
  386   577   578 1
  387   581   582 1
  388   580   581 1
  389   584   585 1
  390   583   584 1
  391   587   588 1
  392   586   587 1
  393   590   591 1
  394   589   590 1
  395   593   594 1
  396   592   593 1
  397   596   597 1
  398   595   596 1
  399   599   600 1
  400   598   599 1
  401   602   603 1
  402   601   602 1
  403   605   606 1
  404   604   605 1
  405   608   609 1
  406   607   608 1
  407   611   612 1
  408   610   611 1
  409   614   615 1
  410   613   614 1
  411   617   618 1
  412   616   617 1
  413   620   621 1
  414   619   620 1
  415   623   624 1
  416   622   623 1
  417   626   627 1
  418   625   626 1
  419   629   630 1
  420   628   629 1
  421   632   633 1
  422   631   632 1
  423   635   636 1
  424   634   635 1
  425   638   639 1
  426   637   638 1
  427   641   642 1
  428   640   641 1
  429   644   645 1
  430   643   644 1
  431   647   648 1
  432   646   647 1
  433   650   651 1
  434   649   650 1
  435   653   654 1
  436   652   653 1
  437   656   657 1
  438   655   656 1
  439   659   660 1
  440   658   659 1
  441   662   663 1
  442   661   662 1
  443   665   666 1
  444   664   665 1
  445   668   669 1
  446   667   668 1
  447   671   672 1
  448   670   671 1
  449   674   675 1
  450   673   674 1
  451   677   678 1
  452   676   677 1
  453   680   681 1
  454   679   680 1
  455   683   684 1
  456   682   683 1
  457   686   687 1
  458   685   686 1
  459   689   690 1
  460   688   689 1
  461   692   693 1
  462   691   692 1
  463   695   696 1
  464   694   695 1
  465   698   699 1
  466   697   698 1
  467   701   702 1
  468   700   701 1
  469   704   705 1
  470   703   704 1
  471   707   708 1
  472   706   707 1
  473   710   711 1
  474   709   710 1
  475   713   714 1
  476   712   713 1
  477   716   717 1
  478   715   716 1
  479   719   720 1
  480   718   719 1
  481   722   723 1
  482   721   722 1
  483   725   726 1
  484   724   725 1
  485   728   729 1
  486   727   728 1
  487   731   732 1
  488   730   731 1
  489   734   735 1
  490   733   734 1
  491   737   738 1
  492   736   737 1
  493   740   741 1
  494   739   740 1
  495   743   744 1
  496   742   743 1
  497   746   747 1
  498   745   746 1
  499   749   750 1
  500   748   749 1
  501   752   753 1
  502   751   752 1
  503   755   756 1
  504   754   755 1
  505   758   759 1
  506   757   758 1
  507   761   762 1
  508   760   761 1
  509   764   765 1
  510   763   764 1
  511   767   768 1
  512   766   767 1
  513   770   771 1
  514   769   770 1
  515   773   774 1
  516   772   773 1
  517   776   777 1
  518   775   776 1
  519   779   780 1
  520   778   779 1
  521   782   783 1
  522   781   782 1
  523   785   786 1
  524   784   785 1
  525   788   789 1
  526   787   788 1
  527   791   792 1
  528   790   791 1
  529   794   795 1
  530   793   794 1
  531   797   798 1
  532   796   797 1
  533   800   801 1
  534   799   800 1
  535   803   804 1
  536   802   803 1
  537   806   807 1
  538   805   806 1
  539   809   810 1
  540   808   809 1
  541   812   813 1
  542   811   812 1
  543   815   816 1
  544   814   815 1
  545   818   819 1
  546   817   818 1
  547   821   822 1
  548   820   821 1
  549   824   825 1
  550   823   824 1
  551   827   828 1
  552   826   827 1
  553   830   831 1
  554   829   830 1
  555   833   834 1
  556   832   833 1
  557   836   837 1
  558   835   836 1
  559   839   840 1
  560   838   839 1
  561   842   843 1
  562   841   842 1
  563   845   846 1
  564   844   845 1
  565   848   849 1
  566   847   848 1
  567   851   852 1
  568   850   851 1
  569   854   855 1
  570   853   854 1
  571   857   858 1
  572   856   857 1
  573   860   861 1
  574   859   860 1
  575   863   864 1
  576   862   863 1
  577   866   867 1
  578   865   866 1
  579   869   870 1
  580   868   869 1
  581   872   873 1
  582   871   872 1
  583   875   876 1
  584   874   875 1
  585   878   879 1
  586   877   878 1
  587   881   882 1
  588   880   881 1
  589   884   885 1
  590   883   884 1
  591   887   888 1
  592   886   887 1
  593   890   891 1
  594   889   890 1
  595   893   894 1
  596   892   893 1
  597   896   897 1
  598   895   896 1
  599   899   900 1
  600   898   899 1
  601   902   903 1
  602   901   902 1
  603   905   906 1
  604   904   905 1
  605   908   909 1
  606   907   908 1
  607   911   912 1
  608   910   911 1
  609   914   915 1
  610   913   914 1
  611   917   918 1
  612   916   917 1
  613   920   921 1
  614   919   920 1
  615   923   924 1
  616   922   923 1
  617   926   927 1
  618   925   926 1
  619   929   930 1
  620   928   929 1
  621   932   933 1
  622   931   932 1
  623   935   936 1
  624   934   935 1
  625   938   939 1
  626   937   938 1
  627   941   942 1
  628   940   941 1
  629   944   945 1
  630   943   944 1
  631   947   948 1
  632   946   947 1
  633   950   951 1
  634   949   950 1
  635   953   954 1
  636   952   953 1
  637   956   957 1
  638   955   956 1
  639   959   960 1
  640   958   959 1
  641   962   963 1
  642   961   962 1
  643   965   966 1
  644   964   965 1
  645   968   969 1
  646   967   968 1
  647   971   972 1
  648   970   971 1
  649   974   975 1
  650   973   974 1
  651   977   978 1
  652   976   977 1
  653   980   981 1
  654   979   980 1
  655   983   984 1
  656   982   983 1
  657   986   987 1
  658   985   986 1
  659   989   990 1
  660   988   989 1
  661   992   993 1
  662   991   992 1
  663   995   996 1
  664   994   995 1
  665   998   999 1
  666   997   998 1
  667  1001  1002 1
  668  1000  1001 1
  669  1004  1005 1
  670  1003  1004 1
  671  1007  1008 1
  672  1006  1007 1
  673  1010  1011 1
  674  1009  1010 1
  675  1013  1014 1
  676  1012  1013 1
  677  1016  1017 1
  678  1015  1016 1
  679  1019  1020 1
  680  1018  1019 1
  681  1022  1023 1
  682  1021  1022 1
  683  1025  1026 1
  684  1024  1025 1
  685  1028  1029 1
  686  1027  1028 1
  687  1031  1032 1
  688  1030  1031 1
  689  1034  1035 1
  690  1033  1034 1
  691  1037  1038 1
  692  1036  1037 1
  693  1040  1041 1
  694  1039  1040 1
  695  1043  1044 1
  696  1042  1043 1
  697  1046  1047 1
  698  1045  1046 1
  699  1049  1050 1
  700  1048  1049 1
  701  1052  1053 1
  702  1051  1052 1
  703  1055  1056 1
  704  1054  1055 1
  705  1058  1059 1
  706  1057  1058 1
  707  1061  1062 1
  708  1060  1061 1
  709  1064  1065 1
  710  1063  1064 1
  711  1067  1068 1
  712  1066  1067 1
  713  1070  1071 1
  714  1069  1070 1
  715  1073  1074 1
  716  1072  1073 1
  717  1076  1077 1
  718  1075  1076 1
  719  1079  1080 1
  720  1078  1079 1
  721  1082  1083 1
  722  1081  1082 1
  723  1085  1086 1
  724  1084  1085 1
  725  1088  1089 1
  726  1087  1088 1
  727  1091  1092 1
  728  1090  1091 1
  729  1094  1095 1
  730  1093  1094 1
  731  1097  1098 1
  732  1096  1097 1
  733  1100  1101 1
  734  1099  1100 1
  735  1103  1104 1
  736  1102  1103 1
  737  1106  1107 1
  738  1105  1106 1
  739  1109  1110 1
  740  1108  1109 1
  741  1112  1113 1
  742  1111  1112 1
  743  1115  1116 1
  744  1114  1115 1
  745  1118  1119 1
  746  1117  1118 1
  747  1121  1122 1
  748  1120  1121 1
  749  1124  1125 1
  750  1123  1124 1
  751  1127  1128 1
  752  1126  1127 1
  753  1130  1131 1
  754  1129  1130 1
  755  1133  1134 1
  756  1132  1133 1
  757  1136  1137 1
  758  1135  1136 1
  759  1139  1140 1
  760  1138  1139 1
  761  1142  1143 1
  762  1141  1142 1
  763  1145  1146 1
  764  1144  1145 1
  765  1148  1149 1
  766  1147  1148 1
  767  1151  1152 1
  768  1150  1151 1
  769  1154  1155 1
  770  1153  1154 1
  771  1157  1158 1
  772  1156  1157 1
  773  1160  1161 1
  774  1159  1160 1
  775  1163  1164 1
  776  1162  1163 1
  777  1166  1167 1
  778  1165  1166 1
  779  1169  1170 1
  780  1168  1169 1
  781  1172  1173 1
  782  1171  1172 1
  783  1175  1176 1
  784  1174  1175 1
  785  1178  1179 1
  786  1177  1178 1
  787  1181  1182 1
  788  1180  1181 1
  789  1184  1185 1
  790  1183  1184 1
  791  1187  1188 1
  792  1186  1187 1
  793  1190  1191 1
  794  1189  1190 1
  795  1193  1194 1
  796  1192  1193 1
  797  1196  1197 1
  798  1195  1196 1
  799  1199  1200 1
  800  1198  1199 1
  801  1202  1203 1
  802  1201  1202 1
  803  1205  1206 1
  804  1204  1205 1
  805  1208  1209 1
  806  1207  1208 1
  807  1211  1212 1
  808  1210  1211 1
  809  1214  1215 1
  810  1213  1214 1
  811  1217  1218 1
  812  1216  1217 1
  813  1220  1221 1
  814  1219  1220 1
  815  1223  1224 1
  816  1222  1223 1
  817  1226  1227 1
  818  1225  1226 1
  819  1229  1230 1
  820  1228  1229 1
  821  1232  1233 1
  822  1231  1232 1
  823  1235  1236 1
  824  1234  1235 1
  825  1238  1239 1
  826  1237  1238 1
  827  1241  1242 1
  828  1240  1241 1
  829  1244  1245 1
  830  1243  1244 1
  831  1247  1248 1
  832  1246  1247 1
  833  1250  1251 1
  834  1249  1250 1
  835  1253  1254 1
  836  1252  1253 1
  837  1256  1257 1
  838  1255  1256 1
  839  1259  1260 1
  840  1258  1259 1
  841  1262  1263 1
  842  1261  1262 1
  843  1265  1266 1
  844  1264  1265 1
  845  1268  1269 1
  846  1267  1268 1
  847  1271  1272 1
  848  1270  1271 1
  849  1274  1275 1
  850  1273  1274 1
  851  1277  1278 1
  852  1276  1277 1
  853  1280  1281 1
  854  1279  1280 1
  855  1283  1284 1
  856  1282  1283 1
  857  1286  1287 1
  858  1285  1286 1
  859  1289  1290 1
  860  1288  1289 1
  861  1292  1293 1
  862  1291  1292 1
  863  1295  1296 1
  864  1294  1295 1
  865  1298  1299 1
  866  1297  1298 1
  867  1301  1302 1
  868  1300  1301 1
  869  1304  1305 1
  870  1303  1304 1
  871  1307  1308 1
  872  1306  1307 1
  873  1310  1311 1
  874  1309  1310 1
  875  1313  1314 1
  876  1312  1313 1
  877  1316  1317 1
  878  1315  1316 1
  879  1319  1320 1
  880  1318  1319 1
  881  1322  1323 1
  882  1321  1322 1
  883  1325  1326 1
  884  1324  1325 1
  885  1328  1329 1
  886  1327  1328 1
  887  1331  1332 1
  888  1330  1331 1
  889  1334  1335 1
  890  1333  1334 1
  891  1337  1338 1
  892  1336  1337 1
  893  1340  1341 1
  894  1339  1340 1
  895  1343  1344 1
  896  1342  1343 1
  897  1346  1347 1
  898  1345  1346 1
  899  1349  1350 1
  900  1348  1349 1
  901  1352  1353 1
  902  1351  1352 1
  903  1355  1356 1
  904  1354  1355 1
  905  1358  1359 1
  906  1357  1358 1
  907  1361  1362 1
  908  1360  1361 1
  909  1364  1365 1
  910  1363  1364 1
  911  1367  1368 1
  912  1366  1367 1
  913  1370  1371 1
  914  1369  1370 1
  915  1373  1374 1
  916  1372  1373 1
  917  1376  1377 1
  918  1375  1376 1
  919  1379  1380 1
  920  1378  1379 1
  921  1382  1383 1
  922  1381  1382 1
  923  1385  1386 1
  924  1384  1385 1
  925  1388  1389 1
  926  1387  1388 1
  927  1391  1392 1
  928  1390  1391 1
  929  1394  1395 1
  930  1393  1394 1
  931  1397  1398 1
  932  1396  1397 1
  933  1400  1401 1
  934  1399  1400 1
  935  1403  1404 1
  936  1402  1403 1
  937  1406  1407 1
  938  1405  1406 1
  939  1409  1410 1
  940  1408  1409 1
  941  1412  1413 1
  942  1411  1412 1
  943  1415  1416 1
  944  1414  1415 1
  945  1418  1419 1
  946  1417  1418 1
  947  1421  1422 1
  948  1420  1421 1
  949  1424  1425 1
  950  1423  1424 1
  951  1427  1428 1
  952  1426  1427 1
  953  1430  1431 1
  954  1429  1430 1
  955  1433  1434 1
  956  1432  1433 1
  957  1436  1437 1
  958  1435  1436 1
  959  1439  1440 1
  960  1438  1439 1
  961  1442  1443 1
  962  1441  1442 1
  963  1445  1446 1
  964  1444  1445 1
  965  1448  1449 1
  966  1447  1448 1
  967  1451  1452 1
  968  1450  1451 1
  969  1454  1455 1
  970  1453  1454 1
  971  1457  1458 1
  972  1456  1457 1
  973  1460  1461 1
  974  1459  1460 1
  975  1463  1464 1
  976  1462  1463 1
  977  1466  1467 1
  978  1465  1466 1
  979  1469  1470 1
  980  1468  1469 1
  981  1472  1473 1
  982  1471  1472 1
  983  1475  1476 1
  984  1474  1475 1
  985  1478  1479 1
  986  1477  1478 1
  987  1481  1482 1
  988  1480  1481 1
  989  1484  1485 1
  990  1483  1484 1
  991  1487  1488 1
  992  1486  1487 1
  993  1490  1491 1
  994  1489  1490 1
  995  1493  1494 1
  996  1492  1493 1
  997  1496  1497 1
  998  1495  1496 1
  999  1499  1500 1
 1000  1498  1499 1
 1001  1502  1503 1
 1002  1501  1502 1
 1003  1505  1506 1
 1004  1504  1505 1
 1005  1508  1509 1
 1006  1507  1508 1
 1007  1511  1512 1
 1008  1510  1511 1
 1009  1514  1515 1
 1010  1513  1514 1
 1011  1517  1518 1
 1012  1516  1517 1
 1013  1520  1521 1
 1014  1519  1520 1
 1015  1523  1524 1
 1016  1522  1523 1
 1017  1526  1527 1
 1018  1525  1526 1
 1019  1529  1530 1
 1020  1528  1529 1
 1021  1532  1533 1
 1022  1531  1532 1
 1023  1535  1536 1
 1024  1534  1535 1
 1025  1538  1539 1
 1026  1537  1538 1
 1027  1541  1542 1
 1028  1540  1541 1
 1029  1544  1545 1
 1030  1543  1544 1
 1031  1547  1548 1
 1032  1546  1547 1
 1033  1550  1551 1
 1034  1549  1550 1
 1035  1553  1554 1
 1036  1552  1553 1
 1037  1556  1557 1
 1038  1555  1556 1
 1039  1559  1560 1
 1040  1558  1559 1
 1041  1562  1563 1
 1042  1561  1562 1
 1043  1565  1566 1
 1044  1564  1565 1
 1045  1568  1569 1
 1046  1567  1568 1
 1047  1571  1572 1
 1048  1570  1571 1
 1049  1574  1575 1
 1050  1573  1574 1
 1051  1577  1578 1
 1052  1576  1577 1
 1053  1580  1581 1
 1054  1579  1580 1
 1055  1583  1584 1
 1056  1582  1583 1
 1057  1586  1587 1
 1058  1585  1586 1
 1059  1589  1590 1
 1060  1588  1589 1
 1061  1592  1593 1
 1062  1591  1592 1
 1063  1595  1596 1
 1064  1594  1595 1
 1065  1598  1599 1
 1066  1597  1598 1
 1067  1601  1602 1
 1068  1600  1601 1
 1069  1604  1605 1
 1070  1603  1604 1
 1071  1607  1608 1
 1072  1606  1607 1
 1073  1610  1611 1
 1074  1609  1610 1
 1075  1613  1614 1
 1076  1612  1613 1
 1077  1616  1617 1
 1078  1615  1616 1
 1079  1619  1620 1
 1080  1618  1619 1
 1081  1622  1623 1
 1082  1621  1622 1
 1083  1625  1626 1
 1084  1624  1625 1
 1085  1628  1629 1
 1086  1627  1628 1
 1087  1631  1632 1
 1088  1630  1631 1
 1089  1634  1635 1
 1090  1633  1634 1
 1091  1637  1638 1
 1092  1636  1637 1
 1093  1640  1641 1
 1094  1639  1640 1
 1095  1643  1644 1
 1096  1642  1643 1
 1097  1646  1647 1
 1098  1645  1646 1
 1099  1649  1650 1
 1100  1648  1649 1
 1101  1652  1653 1
 1102  1651  1652 1
 1103  1655  1656 1
 1104  1654  1655 1
 1105  1658  1659 1
 1106  1657  1658 1
 1107  1661  1662 1
 1108  1660  1661 1
 1109  1664  1665 1
 1110  1663  1664 1
 1111  1667  1668 1
 1112  1666  1667 1
 1113  1670  1671 1
 1114  1669  1670 1
 1115  1673  1674 1
 1116  1672  1673 1
 1117  1676  1677 1
 1118  1675  1676 1
 1119  1679  1680 1
 1120  1678  1679 1
 1121  1682  1683 1
 1122  1681  1682 1
 1123  1685  1686 1
 1124  1684  1685 1
 1125  1688  1689 1
 1126  1687  1688 1
 1127  1691  1692 1
 1128  1690  1691 1
 1129  1694  1695 1
 1130  1693  1694 1
 1131  1697  1698 1
 1132  1696  1697 1
 1133  1700  1701 1
 1134  1699  1700 1
 1135  1703  1704 1
 1136  1702  1703 1
 1137  1706  1707 1
 1138  1705  1706 1
 1139  1709  1710 1
 1140  1708  1709 1
 1141  1712  1713 1
 1142  1711  1712 1
 1143  1715  1716 1
 1144  1714  1715 1
 1145  1718  1719 1
 1146  1717  1718 1
 1147  1721  1722 1
 1148  1720  1721 1
 1149  1724  1725 1
 1150  1723  1724 1
 1151  1727  1728 1
 1152  1726  1727 1
 1153  1730  1731 1
 1154  1729  1730 1
 1155  1733  1734 1
 1156  1732  1733 1
 1157  1736  1737 1
 1158  1735  1736 1
 1159  1739  1740 1
 1160  1738  1739 1
 1161  1742  1743 1
 1162  1741  1742 1
 1163  1745  1746 1
 1164  1744  1745 1
 1165  1748  1749 1
 1166  1747  1748 1
 1167  1751  1752 1
 1168  1750  1751 1
 1169  1754  1755 1
 1170  1753  1754 1
 1171  1757  1758 1
 1172  1756  1757 1
 1173  1760  1761 1
 1174  1759  1760 1
 1175  1763  1764 1
 1176  1762  1763 1
 1177  1766  1767 1
 1178  1765  1766 1
 1179  1769  1770 1
 1180  1768  1769 1
 1181  1772  1773 1
 1182  1771  1772 1
 1183  1775  1776 1
 1184  1774  1775 1
 1185  1778  1779 1
 1186  1777  1778 1
 1187  1781  1782 1
 1188  1780  1781 1
 1189  1784  1785 1
 1190  1783  1784 1
 1191  1787  1788 1
 1192  1786  1787 1
 1193  1790  1791 1
 1194  1789  1790 1
 1195  1793  1794 1
 1196  1792  1793 1
 1197  1796  1797 1
 1198  1795  1796 1
 1199  1799  1800 1
 1200  1798  1799 1
 1201  1802  1803 1
 1202  1801  1802 1
 1203  1805  1806 1
 1204  1804  1805 1
 1205  1808  1809 1
 1206  1807  1808 1
 1207  1811  1812 1
 1208  1810  1811 1
 1209  1814  1815 1
 1210  1813  1814 1
 1211  1817  1818 1
 1212  1816  1817 1
 1213  1820  1821 1
 1214  1819  1820 1
 1215  1823  1824 1
 1216  1822  1823 1
 1217  1826  1827 1
 1218  1825  1826 1
 1219  1829  1830 1
 1220  1828  1829 1
 1221  1832  1833 1
 1222  1831  1832 1
 1223  1835  1836 1
 1224  1834  1835 1
 1225  1838  1839 1
 1226  1837  1838 1
 1227  1841  1842 1
 1228  1840  1841 1
 1229  1844  1845 1
 1230  1843  1844 1
 1231  1847  1848 1
 1232  1846  1847 1
 1233  1850  1851 1
 1234  1849  1850 1
 1235  1853  1854 1
 1236  1852  1853 1
 1237  1856  1857 1
 1238  1855  1856 1
 1239  1859  1860 1
 1240  1858  1859 1
 1241  1862  1863 1
 1242  1861  1862 1
 1243  1865  1866 1
 1244  1864  1865 1
 1245  1868  1869 1
 1246  1867  1868 1
 1247  1871  1872 1
 1248  1870  1871 1
 1249  1874  1875 1
 1250  1873  1874 1
 1251  1877  1878 1
 1252  1876  1877 1
 1253  1880  1881 1
 1254  1879  1880 1
 1255  1883  1884 1
 1256  1882  1883 1
 1257  1886  1887 1
 1258  1885  1886 1
 1259  1889  1890 1
 1260  1888  1889 1
 1261  1892  1893 1
 1262  1891  1892 1
 1263  1895  1896 1
 1264  1894  1895 1
 1265  1898  1899 1
 1266  1897  1898 1
 1267  1901  1902 1
 1268  1900  1901 1
 1269  1904  1905 1
 1270  1903  1904 1
 1271  1907  1908 1
 1272  1906  1907 1
 1273  1910  1911 1
 1274  1909  1910 1
 1275  1913  1914 1
 1276  1912  1913 1
 1277  1916  1917 1
 1278  1915  1916 1
 1279  1919  1920 1
 1280  1918  1919 1
 1281  1922  1923 1
 1282  1921  1922 1
 1283  1925  1926 1
 1284  1924  1925 1
 1285  1928  1929 1
 1286  1927  1928 1
 1287  1931  1932 1
 1288  1930  1931 1
 1289  1934  1935 1
 1290  1933  1934 1
 1291  1937  1938 1
 1292  1936  1937 1
 1293  1940  1941 1
 1294  1939  1940 1
 1295  1943  1944 1
 1296  1942  1943 1
 1297  1946  1947 1
 1298  1945  1946 1
 1299  1949  1950 1
 1300  1948  1949 1
 1301  1952  1953 1
 1302  1951  1952 1
 1303  1955  1956 1
 1304  1954  1955 1
 1305  1958  1959 1
 1306  1957  1958 1
 1307  1961  1962 1
 1308  1960  1961 1
 1309  1964  1965 1
 1310  1963  1964 1
 1311  1967  1968 1
 1312  1966  1967 1
 1313  1970  1971 1
 1314  1969  1970 1
 1315  1973  1974 1
 1316  1972  1973 1
 1317  1976  1977 1
 1318  1975  1976 1
 1319  1979  1980 1
 1320  1978  1979 1
 1321  1982  1983 1
 1322  1981  1982 1
 1323  1985  1986 1
 1324  1984  1985 1
 1325  1988  1989 1
 1326  1987  1988 1
 1327  1991  1992 1
 1328  1990  1991 1
 1329  1994  1995 1
 1330  1993  1994 1
 1331  1997  1998 1
 1332  1996  1997 1
 1333  2000  2001 1
 1334  1999  2000 1
 1335  2003  2004 1
 1336  2002  2003 1
 1337  2006  2007 1
 1338  2005  2006 1
 1339  2009  2010 1
 1340  2008  2009 1
 1341  2012  2013 1
 1342  2011  2012 1
 1343  2015  2016 1
 1344  2014  2015 1
 1345  2018  2019 1
 1346  2017  2018 1
 1347  2021  2022 1
 1348  2020  2021 1
 1349  2024  2025 1
 1350  2023  2024 1
 1351  2027  2028 1
 1352  2026  2027 1
 1353  2030  2031 1
 1354  2029  2030 1
 1355  2033  2034 1
 1356  2032  2033 1
 1357  2036  2037 1
 1358  2035  2036 1
 1359  2039  2040 1
 1360  2038  2039 1
 1361  2042  2043 1
 1362  2041  2042 1
 1363  2045  2046 1
 1364  2044  2045 1
 1365  2048  2049 1
 1366  2047  2048 1
 1367  2051  2052 1
 1368  2050  2051 1
 1369  2054  2055 1
 1370  2053  2054 1
 1371  2057  2058 1
 1372  2056  2057 1
 1373  2060  2061 1
 1374  2059  2060 1
 1375  2063  2064 1
 1376  2062  2063 1
 1377  2066  2067 1
 1378  2065  2066 1
 1379  2069  2070 1
 1380  2068  2069 1
 1381  2072  2073 1
 1382  2071  2072 1
 1383  2075  2076 1
 1384  2074  2075 1
 1385  2078  2079 1
 1386  2077  2078 1
 1387  2081  2082 1
 1388  2080  2081 1
 1389  2084  2085 1
 1390  2083  2084 1
 1391  2087  2088 1
 1392  2086  2087 1
 1393  2090  2091 1
 1394  2089  2090 1
 1395  2093  2094 1
 1396  2092  2093 1
 1397  2096  2097 1
 1398  2095  2096 1
 1399  2099  2100 1
 1400  2098  2099 1
 1401  2102  2103 1
 1402  2101  2102 1
 1403  2105  2106 1
 1404  2104  2105 1
 1405  2108  2109 1
 1406  2107  2108 1
 1407  2111  2112 1
 1408  2110  2111 1
 1409  2114  2115 1
 1410  2113  2114 1
 1411  2117  2118 1
 1412  2116  2117 1
 1413  2120  2121 1
 1414  2119  2120 1
 1415  2123  2124 1
 1416  2122  2123 1
 1417  2126  2127 1
 1418  2125  2126 1
 1419  2129  2130 1
 1420  2128  2129 1
 1421  2132  2133 1
 1422  2131  2132 1
 1423  2135  2136 1
 1424  2134  2135 1
 1425  2138  2139 1
 1426  2137  2138 1
 1427  2141  2142 1
 1428  2140  2141 1
 1429  2144  2145 1
 1430  2143  2144 1
 1431  2147  2148 1
 1432  2146  2147 1
 1433  2150  2151 1
 1434  2149  2150 1
 1435  2153  2154 1
 1436  2152  2153 1
 1437  2156  2157 1
 1438  2155  2156 1
 1439  2159  2160 1
 1440  2158  2159 1
 1441  2162  2163 1
 1442  2161  2162 1
 1443  2165  2166 1
 1444  2164  2165 1
 1445  2168  2169 1
 1446  2167  2168 1
 1447  2171  2172 1
 1448  2170  2171 1
 1449  2174  2175 1
 1450  2173  2174 1
 1451  2177  2178 1
 1452  2176  2177 1
 1453  2180  2181 1
 1454  2179  2180 1
 1455  2183  2184 1
 1456  2182  2183 1
 1457  2186  2187 1
 1458  2185  2186 1
 1459  2189  2190 1
 1460  2188  2189 1
 1461  2192  2193 1
 1462  2191  2192 1
 1463  2195  2196 1
 1464  2194  2195 1
 1465  2198  2199 1
 1466  2197  2198 1
 1467  2201  2202 1
 1468  2200  2201 1
 1469  2204  2205 1
 1470  2203  2204 1
 1471  2207  2208 1
 1472  2206  2207 1
 1473  2210  2211 1
 1474  2209  2210 1
 1475  2213  2214 1
 1476  2212  2213 1
 1477  2216  2217 1
 1478  2215  2216 1
 1479  2219  2220 1
 1480  2218  2219 1
 1481  2222  2223 1
 1482  2221  2222 1
 1483  2225  2226 1
 1484  2224  2225 1
 1485  2228  2229 1
 1486  2227  2228 1
 1487  2231  2232 1
 1488  2230  2231 1
 1489  2234  2235 1
 1490  2233  2234 1
 1491  2237  2238 1
 1492  2236  2237 1
 1493  2240  2241 1
 1494  2239  2240 1
 1495  2243  2244 1
 1496  2242  2243 1
 1497  2246  2247 1
 1498  2245  2246 1
 1499  2249  2250 1
 1500  2248  2249 1
 1501  2252  2253 1
 1502  2251  2252 1
 1503  2255  2256 1
 1504  2254  2255 1
 1505  2258  2259 1
 1506  2257  2258 1
 1507  2261  2262 1
 1508  2260  2261 1
 1509  2264  2265 1
 1510  2263  2264 1
 1511  2267  2268 1
 1512  2266  2267 1
 1513  2270  2271 1
 1514  2269  2270 1
 1515  2273  2274 1
 1516  2272  2273 1
 1517  2276  2277 1
 1518  2275  2276 1
 1519  2279  2280 1
 1520  2278  2279 1
 1521  2282  2283 1
 1522  2281  2282 1
 1523  2285  2286 1
 1524  2284  2285 1
 1525  2288  2289 1
 1526  2287  2288 1
 1527  2291  2292 1
 1528  2290  2291 1
 1529  2294  2295 1
 1530  2293  2294 1
 1531  2297  2298 1
 1532  2296  2297 1
 1533  2300  2301 1
 1534  2299  2300 1
 1535  2303  2304 1
 1536  2302  2303 1
 1537  2306  2307 1
 1538  2305  2306 1
 1539  2309  2310 1
 1540  2308  2309 1
 1541  2312  2313 1
 1542  2311  2312 1
 1543  2315  2316 1
 1544  2314  2315 1
 1545  2318  2319 1
 1546  2317  2318 1
 1547  2321  2322 1
 1548  2320  2321 1
 1549  2324  2325 1
 1550  2323  2324 1
 1551  2327  2328 1
 1552  2326  2327 1
 1553  2330  2331 1
 1554  2329  2330 1
 1555  2333  2334 1
 1556  2332  2333 1
 1557  2336  2337 1
 1558  2335  2336 1
 1559  2339  2340 1
 1560  2338  2339 1
 1561  2342  2343 1
 1562  2341  2342 1
 1563  2345  2346 1
 1564  2344  2345 1
 1565  2348  2349 1
 1566  2347  2348 1
 1567  2351  2352 1
 1568  2350  2351 1
 1569  2354  2355 1
 1570  2353  2354 1
 1571  2357  2358 1
 1572  2356  2357 1
 1573  2360  2361 1
 1574  2359  2360 1
 1575  2363  2364 1
 1576  2362  2363 1
 1577  2366  2367 1
 1578  2365  2366 1
 1579  2369  2370 1
 1580  2368  2369 1
 1581  2372  2373 1
 1582  2371  2372 1
 1583  2375  2376 1
 1584  2374  2375 1
 1585  2378  2379 1
 1586  2377  2378 1
 1587  2381  2382 1
 1588  2380  2381 1
 1589  2384  2385 1
 1590  2383  2384 1
 1591  2387  2388 1
 1592  2386  2387 1
 1593  2390  2391 1
 1594  2389  2390 1
 1595  2393  2394 1
 1596  2392  2393 1
 1597  2396  2397 1
 1598  2395  2396 1
 1599  2399  2400 1
 1600  2398  2399 1
 1601  2402  2403 1
 1602  2401  2402 1
 1603  2405  2406 1
 1604  2404  2405 1
 1605  2408  2409 1
 1606  2407  2408 1
 1607  2411  2412 1
 1608  2410  2411 1
 1609  2414  2415 1
 1610  2413  2414 1
 1611  2417  2418 1
 1612  2416  2417 1
 1613  2420  2421 1
 1614  2419  2420 1
 1615  2423  2424 1
 1616  2422  2423 1
 1617  2426  2427 1
 1618  2425  2426 1
 1619  2429  2430 1
 1620  2428  2429 1
 1621  2432  2433 1
 1622  2431  2432 1
 1623  2435  2436 1
 1624  2434  2435 1
 1625  2438  2439 1
 1626  2437  2438 1
 1627  2441  2442 1
 1628  2440  2441 1
 1629  2444  2445 1
 1630  2443  2444 1
 1631  2447  2448 1
 1632  2446  2447 1
 1633  2450  2451 1
 1634  2449  2450 1
 1635  2453  2454 1
 1636  2452  2453 1
 1637  2456  2457 1
 1638  2455  2456 1
 1639  2459  2460 1
 1640  2458  2459 1
 1641  2462  2463 1
 1642  2461  2462 1
 1643  2465  2466 1
 1644  2464  2465 1
 1645  2468  2469 1
 1646  2467  2468 1
 1647  2471  2472 1
 1648  2470  2471 1
 1649  2474  2475 1
 1650  2473  2474 1
 1651  2477  2478 1
 1652  2476  2477 1
 1653  2480  2481 1
 1654  2479  2480 1
 1655  2483  2484 1
 1656  2482  2483 1
 1657  2486  2487 1
 1658  2485  2486 1
 1659  2489  2490 1
 1660  2488  2489 1
 1661  2492  2493 1
 1662  2491  2492 1
 1663  2495  2496 1
 1664  2494  2495 1
 1665  2498  2499 1
 1666  2497  2498 1
 1667  2501  2502 1
 1668  2500  2501 1
 1669  2504  2505 1
 1670  2503  2504 1
 1671  2507  2508 1
 1672  2506  2507 1
 1673  2510  2511 1
 1674  2509  2510 1
 1675  2513  2514 1
 1676  2512  2513 1
 1677  2516  2517 1
 1678  2515  2516 1
 1679  2519  2520 1
 1680  2518  2519 1
 1681  2522  2523 1
 1682  2521  2522 1
 1683  2525  2526 1
 1684  2524  2525 1
 1685  2528  2529 1
 1686  2527  2528 1
 1687  2531  2532 1
 1688  2530  2531 1
 1689  2534  2535 1
 1690  2533  2534 1
 1691  2537  2538 1
 1692  2536  2537 1
 1693  2540  2541 1
 1694  2539  2540 1
 1695  2543  2544 1
 1696  2542  2543 1
 1697  2546  2547 1
 1698  2545  2546 1
 1699  2549  2550 1
 1700  2548  2549 1
 1701  2552  2553 1
 1702  2551  2552 1
 1703  2555  2556 1
 1704  2554  2555 1
 1705  2558  2559 1
 1706  2557  2558 1
 1707  2561  2562 1
 1708  2560  2561 1
 1709  2564  2565 1
 1710  2563  2564 1
 1711  2567  2568 1
 1712  2566  2567 1
 1713  2570  2571 1
 1714  2569  2570 1
 1715  2573  2574 1
 1716  2572  2573 1
 1717  2576  2577 1
 1718  2575  2576 1
 1719  2579  2580 1
 1720  2578  2579 1
 1721  2582  2583 1
 1722  2581  2582 1
 1723  2585  2586 1
 1724  2584  2585 1
 1725  2588  2589 1
 1726  2587  2588 1
 1727  2591  2592 1
 1728  2590  2591 1
 1729  2594  2595 1
 1730  2593  2594 1
 1731  2597  2598 1
 1732  2596  2597 1
 1733  2600  2601 1
 1734  2599  2600 1
 1735  2603  2604 1
 1736  2602  2603 1
 1737  2606  2607 1
 1738  2605  2606 1
 1739  2609  2610 1
 1740  2608  2609 1
 1741  2612  2613 1
 1742  2611  2612 1
 1743  2615  2616 1
 1744  2614  2615 1
 1745  2618  2619 1
 1746  2617  2618 1
 1747  2621  2622 1
 1748  2620  2621 1
 1749  2624  2625 1
 1750  2623  2624 1
 1751  2627  2628 1
 1752  2626  2627 1
 1753  2630  2631 1
 1754  2629  2630 1
 1755  2633  2634 1
 1756  2632  2633 1
 1757  2636  2637 1
 1758  2635  2636 1
 1759  2639  2640 1
 1760  2638  2639 1
 1761  2642  2643 1
 1762  2641  2642 1
 1763  2645  2646 1
 1764  2644  2645 1
 1765  2648  2649 1
 1766  2647  2648 1
 1767  2651  2652 1
 1768  2650  2651 1
 1769  2654  2655 1
 1770  2653  2654 1
 1771  2657  2658 1
 1772  2656  2657 1
 1773  2660  2661 1
 1774  2659  2660 1
 1775  2663  2664 1
 1776  2662  2663 1
 1777  2666  2667 1
 1778  2665  2666 1
 1779  2669  2670 1
 1780  2668  2669 1
 1781  2672  2673 1
 1782  2671  2672 1
 1783  2675  2676 1
 1784  2674  2675 1
 1785  2678  2679 1
 1786  2677  2678 1
 1787  2681  2682 1
 1788  2680  2681 1
 1789  2684  2685 1
 1790  2683  2684 1
 1791  2687  2688 1
 1792  2686  2687 1
 1793  2690  2691 1
 1794  2689  2690 1
 1795  2693  2694 1
 1796  2692  2693 1
 1797  2696  2697 1
 1798  2695  2696 1
 1799  2699  2700 1
 1800  2698  2699 1
 1801  2702  2703 1
 1802  2701  2702 1
 1803  2705  2706 1
 1804  2704  2705 1
 1805  2708  2709 1
 1806  2707  2708 1
 1807  2711  2712 1
 1808  2710  2711 1
 1809  2714  2715 1
 1810  2713  2714 1
 1811  2717  2718 1
 1812  2716  2717 1
 1813  2720  2721 1
 1814  2719  2720 1
 1815  2723  2724 1
 1816  2722  2723 1
 1817  2726  2727 1
 1818  2725  2726 1
 1819  2729  2730 1
 1820  2728  2729 1
 1821  2732  2733 1
 1822  2731  2732 1
 1823  2735  2736 1
 1824  2734  2735 1
 1825  2738  2739 1
 1826  2737  2738 1
 1827  2741  2742 1
 1828  2740  2741 1
 1829  2744  2745 1
 1830  2743  2744 1
 1831  2747  2748 1
 1832  2746  2747 1
 1833  2750  2751 1
 1834  2749  2750 1
 1835  2753  2754 1
 1836  2752  2753 1
 1837  2756  2757 1
 1838  2755  2756 1
 1839  2759  2760 1
 1840  2758  2759 1
 1841  2762  2763 1
 1842  2761  2762 1
 1843  2765  2766 1
 1844  2764  2765 1
 1845  2768  2769 1
 1846  2767  2768 1
 1847  2771  2772 1
 1848  2770  2771 1
 1849  2774  2775 1
 1850  2773  2774 1
 1851  2777  2778 1
 1852  2776  2777 1
 1853  2780  2781 1
 1854  2779  2780 1
 1855  2783  2784 1
 1856  2782  2783 1
 1857  2786  2787 1
 1858  2785  2786 1
 1859  2789  2790 1
 1860  2788  2789 1
 1861  2792  2793 1
 1862  2791  2792 1
 1863  2795  2796 1
 1864  2794  2795 1
 1865  2798  2799 1
 1866  2797  2798 1
 1867  2801  2802 1
 1868  2800  2801 1
 1869  2804  2805 1
 1870  2803  2804 1
 1871  2807  2808 1
 1872  2806  2807 1
 1873  2810  2811 1
 1874  2809  2810 1
 1875  2813  2814 1
 1876  2812  2813 1
 1877  2816  2817 1
 1878  2815  2816 1
 1879  2819  2820 1
 1880  2818  2819 1
 1881  2822  2823 1
 1882  2821  2822 1
 1883  2825  2826 1
 1884  2824  2825 1
 1885  2828  2829 1
 1886  2827  2828 1
 1887  2831  2832 1
 1888  2830  2831 1
 1889  2834  2835 1
 1890  2833  2834 1
 1891  2837  2838 1
 1892  2836  2837 1
 1893  2840  2841 1
 1894  2839  2840 1
 1895  2843  2844 1
 1896  2842  2843 1
 1897  2846  2847 1
 1898  2845  2846 1
 1899  2849  2850 1
 1900  2848  2849 1
 1901  2852  2853 1
 1902  2851  2852 1
 1903  2855  2856 1
 1904  2854  2855 1
 1905  2858  2859 1
 1906  2857  2858 1
 1907  2861  2862 1
 1908  2860  2861 1
 1909  2864  2865 1
 1910  2863  2864 1
 1911  2867  2868 1
 1912  2866  2867 1
 1913  2870  2871 1
 1914  2869  2870 1
 1915  2873  2874 1
 1916  2872  2873 1
 1917  2876  2877 1
 1918  2875  2876 1
 1919  2879  2880 1
 1920  2878  2879 1
 1921  2882  2883 1
 1922  2881  2882 1
 1923  2885  2886 1
 1924  2884  2885 1
 1925  2888  2889 1
 1926  2887  2888 1
 1927  2891  2892 1
 1928  2890  2891 1
 1929  2894  2895 1
 1930  2893  2894 1
 1931  2897  2898 1
 1932  2896  2897 1
 1933  2900  2901 1
 1934  2899  2900 1
 1935  2903  2904 1
 1936  2902  2903 1
 1937  2906  2907 1
 1938  2905  2906 1
 1939  2909  2910 1
 1940  2908  2909 1
 1941  2912  2913 1
 1942  2911  2912 1
 1943  2915  2916 1
 1944  2914  2915 1
 1945  2918  2919 1
 1946  2917  2918 1
 1947  2921  2922 1
 1948  2920  2921 1
 1949  2924  2925 1
 1950  2923  2924 1
 1951  2927  2928 1
 1952  2926  2927 1
 1953  2930  2931 1
 1954  2929  2930 1
 1955  2933  2934 1
 1956  2932  2933 1
 1957  2936  2937 1
 1958  2935  2936 1
 1959  2939  2940 1
 1960  2938  2939 1
 1961  2942  2943 1
 1962  2941  2942 1
 1963  2945  2946 1
 1964  2944  2945 1
 1965  2948  2949 1
 1966  2947  2948 1
 1967  2951  2952 1
 1968  2950  2951 1
 1969  2954  2955 1
 1970  2953  2954 1
 1971  2957  2958 1
 1972  2956  2957 1
 1973  2960  2961 1
 1974  2959  2960 1
 1975  2963  2964 1
 1976  2962  2963 1
 1977  2966  2967 1
 1978  2965  2966 1
 1979  2969  2970 1
 1980  2968  2969 1
 1981  2972  2973 1
 1982  2971  2972 1
 1983  2975  2976 1
 1984  2974  2975 1
 1985  2978  2979 1
 1986  2977  2978 1
 1987  2981  2982 1
 1988  2980  2981 1
 1989  2984  2985 1
 1990  2983  2984 1
 1991  2987  2988 1
 1992  2986  2987 1
 1993  2990  2991 1
 1994  2989  2990 1
 1995  2993  2994 1
 1996  2992  2993 1
 1997  2996  2997 1
 1998  2995  2996 1
 1999  2999  3000 1
 2000  2998  2999 1
 2001  3002  3003 1
 2002  3001  3002 1
 2003  3005  3006 1
 2004  3004  3005 1
 2005  3008  3009 1
 2006  3007  3008 1
 2007  3011  3012 1
 2008  3010  3011 1
 2009  3014  3015 1
 2010  3013  3014 1
 2011  3017  3018 1
 2012  3016  3017 1
 2013  3020  3021 1
 2014  3019  3020 1
 2015  3023  3024 1
 2016  3022  3023 1
 2017  3026  3027 1
 2018  3025  3026 1
 2019  3029  3030 1
 2020  3028  3029 1
 2021  3032  3033 1
 2022  3031  3032 1
 2023  3035  3036 1
 2024  3034  3035 1
 2025  3038  3039 1
 2026  3037  3038 1
 2027  3041  3042 1
 2028  3040  3041 1
 2029  3044  3045 1
 2030  3043  3044 1
 2031  3047  3048 1
 2032  3046  3047 1
 2033  3050  3051 1
 2034  3049  3050 1
 2035  3053  3054 1
 2036  3052  3053 1
 2037  3056  3057 1
 2038  3055  3056 1
 2039  3059  3060 1
 2040  3058  3059 1
 2041  3062  3063 1
 2042  3061  3062 1
 2043  3065  3066 1
 2044  3064  3065 1
 2045  3068  3069 1
 2046  3067  3068 1
 2047  3071  3072 1
 2048  3070  3071 1
 2049  3074  3075 1
 2050  3073  3074 1
 2051  3077  3078 1
 2052  3076  3077 1
 2053  3080  3081 1
 2054  3079  3080 1
 2055  3083  3084 1
 2056  3082  3083 1
 2057  3086  3087 1
 2058  3085  3086 1
 2059  3089  3090 1
 2060  3088  3089 1
 2061  3092  3093 1
 2062  3091  3092 1
 2063  3095  3096 1
 2064  3094  3095 1
 2065  3098  3099 1
 2066  3097  3098 1
 2067  3101  3102 1
 2068  3100  3101 1
 2069  3104  3105 1
 2070  3103  3104 1
 2071  3107  3108 1
 2072  3106  3107 1
 2073  3110  3111 1
 2074  3109  3110 1
 2075  3113  3114 1
 2076  3112  3113 1
 2077  3116  3117 1
 2078  3115  3116 1
 2079  3119  3120 1
 2080  3118  3119 1
 2081  3122  3123 1
 2082  3121  3122 1
 2083  3125  3126 1
 2084  3124  3125 1
 2085  3128  3129 1
 2086  3127  3128 1
 2087  3131  3132 1
 2088  3130  3131 1
 2089  3134  3135 1
 2090  3133  3134 1
 2091  3137  3138 1
 2092  3136  3137 1
 2093  3140  3141 1
 2094  3139  3140 1
 2095  3143  3144 1
 2096  3142  3143 1
 2097  3146  3147 1
 2098  3145  3146 1
 2099  3149  3150 1
 2100  3148  3149 1
 2101  3152  3153 1
 2102  3151  3152 1
 2103  3155  3156 1
 2104  3154  3155 1
 2105  3158  3159 1
 2106  3157  3158 1
 2107  3161  3162 1
 2108  3160  3161 1
 2109  3164  3165 1
 2110  3163  3164 1
 2111  3167  3168 1
 2112  3166  3167 1
 2113  3170  3171 1
 2114  3169  3170 1
 2115  3173  3174 1
 2116  3172  3173 1
 2117  3176  3177 1
 2118  3175  3176 1
 2119  3179  3180 1
 2120  3178  3179 1
 2121  3182  3183 1
 2122  3181  3182 1
 2123  3185  3186 1
 2124  3184  3185 1
 2125  3188  3189 1
 2126  3187  3188 1
 2127  3191  3192 1
 2128  3190  3191 1
 2129  3194  3195 1
 2130  3193  3194 1
 2131  3197  3198 1
 2132  3196  3197 1
 2133  3200  3201 1
 2134  3199  3200 1
 2135  3203  3204 1
 2136  3202  3203 1
 2137  3206  3207 1
 2138  3205  3206 1
 2139  3209  3210 1
 2140  3208  3209 1
 2141  3212  3213 1
 2142  3211  3212 1
 2143  3215  3216 1
 2144  3214  3215 1
 2145  3218  3219 1
 2146  3217  3218 1
 2147  3221  3222 1
 2148  3220  3221 1
 2149  3224  3225 1
 2150  3223  3224 1
 2151  3227  3228 1
 2152  3226  3227 1
 2153  3230  3231 1
 2154  3229  3230 1
 2155  3233  3234 1
 2156  3232  3233 1
 2157  3236  3237 1
 2158  3235  3236 1
 2159  3239  3240 1
 2160  3238  3239 1
 2161  3242  3243 1
 2162  3241  3242 1
 2163  3245  3246 1
 2164  3244  3245 1
 2165  3248  3249 1
 2166  3247  3248 1
 2167  3251  3252 1
 2168  3250  3251 1
 2169  3254  3255 1
 2170  3253  3254 1
 2171  3257  3258 1
 2172  3256  3257 1
 2173  3260  3261 1
 2174  3259  3260 1
 2175  3263  3264 1
 2176  3262  3263 1
 2177  3266  3267 1
 2178  3265  3266 1
 2179  3269  3270 1
 2180  3268  3269 1
 2181  3272  3273 1
 2182  3271  3272 1
 2183  3275  3276 1
 2184  3274  3275 1
 2185  3278  3279 1
 2186  3277  3278 1
 2187  3281  3282 1
 2188  3280  3281 1
 2189  3284  3285 1
 2190  3283  3284 1
 2191  3287  3288 1
 2192  3286  3287 1
 2193  3290  3291 1
 2194  3289  3290 1
 2195  3293  3294 1
 2196  3292  3293 1
 2197  3296  3297 1
 2198  3295  3296 1
 2199  3299  3300 1
 2200  3298  3299 1
 2201  3302  3303 1
 2202  3301  3302 1
 2203  3305  3306 1
 2204  3304  3305 1
 2205  3308  3309 1
 2206  3307  3308 1
 2207  3311  3312 1
 2208  3310  3311 1
 2209  3314  3315 1
 2210  3313  3314 1
 2211  3317  3318 1
 2212  3316  3317 1
 2213  3320  3321 1
 2214  3319  3320 1
 2215  3323  3324 1
 2216  3322  3323 1
 2217  3326  3327 1
 2218  3325  3326 1
 2219  3329  3330 1
 2220  3328  3329 1
 2221  3332  3333 1
 2222  3331  3332 1
 2223  3335  3336 1
 2224  3334  3335 1
 2225  3338  3339 1
 2226  3337  3338 1
 2227  3341  3342 1
 2228  3340  3341 1
 2229  3344  3345 1
 2230  3343  3344 1
 2231  3347  3348 1
 2232  3346  3347 1
 2233  3350  3351 1
 2234  3349  3350 1
 2235  3353  3354 1
 2236  3352  3353 1
 2237  3356  3357 1
 2238  3355  3356 1
 2239  3359  3360 1
 2240  3358  3359 1
 2241  3362  3363 1
 2242  3361  3362 1
 2243  3365  3366 1
 2244  3364  3365 1
 2245  3368  3369 1
 2246  3367  3368 1
 2247  3371  3372 1
 2248  3370  3371 1
 2249  3374  3375 1
 2250  3373  3374 1
 2251  3377  3378 1
 2252  3376  3377 1
 2253  3380  3381 1
 2254  3379  3380 1
 2255  3383  3384 1
 2256  3382  3383 1
 2257  3386  3387 1
 2258  3385  3386 1
 2259  3389  3390 1
 2260  3388  3389 1
 2261  3392  3393 1
 2262  3391  3392 1
 2263  3395  3396 1
 2264  3394  3395 1
 2265  3398  3399 1
 2266  3397  3398 1
 2267  3401  3402 1
 2268  3400  3401 1
 2269  3404  3405 1
 2270  3403  3404 1
 2271  3407  3408 1
 2272  3406  3407 1
 2273  3410  3411 1
 2274  3409  3410 1
 2275  3413  3414 1
 2276  3412  3413 1
 2277  3416  3417 1
 2278  3415  3416 1
 2279  3419  3420 1
 2280  3418  3419 1
 2281  3422  3423 1
 2282  3421  3422 1
 2283  3425  3426 1
 2284  3424  3425 1
 2285  3428  3429 1
 2286  3427  3428 1
 2287  3431  3432 1
 2288  3430  3431 1
 2289  3434  3435 1
 2290  3433  3434 1
 2291  3437  3438 1
 2292  3436  3437 1
 2293  3440  3441 1
 2294  3439  3440 1
 2295  3443  3444 1
 2296  3442  3443 1
 2297  3446  3447 1
 2298  3445  3446 1
 2299  3449  3450 1
 2300  3448  3449 1
 2301  3452  3453 1
 2302  3451  3452 1
 2303  3455  3456 1
 2304  3454  3455 1
 2305  3458  3459 1
 2306  3457  3458 1
 2307  3461  3462 1
 2308  3460  3461 1
 2309  3464  3465 1
 2310  3463  3464 1
 2311  3467  3468 1
 2312  3466  3467 1
 2313  3470  3471 1
 2314  3469  3470 1
 2315  3473  3474 1
 2316  3472  3473 1
 2317  3476  3477 1
 2318  3475  3476 1
 2319  3479  3480 1
 2320  3478  3479 1
 2321  3482  3483 1
 2322  3481  3482 1
 2323  3485  3486 1
 2324  3484  3485 1
 2325  3488  3489 1
 2326  3487  3488 1
 2327  3491  3492 1
 2328  3490  3491 1
 2329  3494  3495 1
 2330  3493  3494 1
 2331  3497  3498 1
 2332  3496  3497 1
 2333  3500  3501 1
 2334  3499  3500 1
 2335  3503  3504 1
 2336  3502  3503 1
 2337  3506  3507 1
 2338  3505  3506 1
 2339  3509  3510 1
 2340  3508  3509 1
 2341  3512  3513 1
 2342  3511  3512 1
 2343  3515  3516 1
 2344  3514  3515 1
 2345  3518  3519 1
 2346  3517  3518 1
 2347  3521  3522 1
 2348  3520  3521 1
 2349  3524  3525 1
 2350  3523  3524 1
 2351  3527  3528 1
 2352  3526  3527 1
 2353  3530  3531 1
 2354  3529  3530 1
 2355  3533  3534 1
 2356  3532  3533 1
 2357  3536  3537 1
 2358  3535  3536 1
 2359  3539  3540 1
 2360  3538  3539 1
 2361  3542  3543 1
 2362  3541  3542 1
 2363  3545  3546 1
 2364  3544  3545 1
 2365  3548  3549 1
 2366  3547  3548 1
 2367  3551  3552 1
 2368  3550  3551 1
 2369  3554  3555 1
 2370  3553  3554 1
 2371  3557  3558 1
 2372  3556  3557 1
 2373  3560  3561 1
 2374  3559  3560 1
 2375  3563  3564 1
 2376  3562  3563 1
 2377  3566  3567 1
 2378  3565  3566 1
 2379  3569  3570 1
 2380  3568  3569 1
 2381  3572  3573 1
 2382  3571  3572 1
 2383  3575  3576 1
 2384  3574  3575 1
 2385  3578  3579 1
 2386  3577  3578 1
 2387  3581  3582 1
 2388  3580  3581 1
 2389  3584  3585 1
 2390  3583  3584 1
 2391  3587  3588 1
 2392  3586  3587 1
 2393  3590  3591 1
 2394  3589  3590 1
 2395  3593  3594 1
 2396  3592  3593 1
 2397  3596  3597 1
 2398  3595  3596 1
 2399  3599  3600 1
 2400  3598  3599 1
 2401  3602  3603 1
 2402  3601  3602 1
 2403  3605  3606 1
 2404  3604  3605 1
 2405  3608  3609 1
 2406  3607  3608 1
 2407  3611  3612 1
 2408  3610  3611 1
 2409  3614  3615 1
 2410  3613  3614 1
 2411  3617  3618 1
 2412  3616  3617 1
 2413  3620  3621 1
 2414  3619  3620 1
 2415  3623  3624 1
 2416  3622  3623 1
 2417  3626  3627 1
 2418  3625  3626 1
 2419  3629  3630 1
 2420  3628  3629 1
 2421  3632  3633 1
 2422  3631  3632 1
 2423  3635  3636 1
 2424  3634  3635 1
 2425  3638  3639 1
 2426  3637  3638 1
 2427  3641  3642 1
 2428  3640  3641 1
 2429  3644  3645 1
 2430  3643  3644 1
 2431  3647  3648 1
 2432  3646  3647 1
 2433  3650  3651 1
 2434  3649  3650 1
 2435  3653  3654 1
 2436  3652  3653 1
 2437  3656  3657 1
 2438  3655  3656 1
 2439  3659  3660 1
 2440  3658  3659 1
 2441  3662  3663 1
 2442  3661  3662 1
 2443  3665  3666 1
 2444  3664  3665 1
 2445  3668  3669 1
 2446  3667  3668 1
 2447  3671  3672 1
 2448  3670  3671 1
 2449  3674  3675 1
 2450  3673  3674 1
 2451  3677  3678 1
 2452  3676  3677 1
 2453  3680  3681 1
 2454  3679  3680 1
 2455  3683  3684 1
 2456  3682  3683 1
 2457  3686  3687 1
 2458  3685  3686 1
 2459  3689  3690 1
 2460  3688  3689 1
 2461  3692  3693 1
 2462  3691  3692 1
 2463  3695  3696 1
 2464  3694  3695 1
 2465  3698  3699 1
 2466  3697  3698 1
 2467  3701  3702 1
 2468  3700  3701 1
 2469  3704  3705 1
 2470  3703  3704 1
 2471  3707  3708 1
 2472  3706  3707 1
 2473  3710  3711 1
 2474  3709  3710 1
 2475  3713  3714 1
 2476  3712  3713 1
 2477  3716  3717 1
 2478  3715  3716 1
 2479  3719  3720 1
 2480  3718  3719 1
 2481  3722  3723 1
 2482  3721  3722 1
 2483  3725  3726 1
 2484  3724  3725 1
 2485  3728  3729 1
 2486  3727  3728 1
 2487  3731  3732 1
 2488  3730  3731 1
 2489  3734  3735 1
 2490  3733  3734 1
 2491  3737  3738 1
 2492  3736  3737 1
 2493  3740  3741 1
 2494  3739  3740 1
 2495  3743  3744 1
 2496  3742  3743 1
 2497  3746  3747 1
 2498  3745  3746 1
 2499  3749  3750 1
 2500  3748  3749 1
 2501  3752  3753 1
 2502  3751  3752 1
 2503  3755  3756 1
 2504  3754  3755 1
 2505  3758  3759 1
 2506  3757  3758 1
 2507  3761  3762 1
 2508  3760  3761 1
 2509  3764  3765 1
 2510  3763  3764 1
 2511  3767  3768 1
 2512  3766  3767 1
 2513  3770  3771 1
 2514  3769  3770 1
 2515  3773  3774 1
 2516  3772  3773 1
 2517  3776  3777 1
 2518  3775  3776 1
 2519  3779  3780 1
 2520  3778  3779 1
 2521  3782  3783 1
 2522  3781  3782 1
 2523  3785  3786 1
 2524  3784  3785 1
 2525  3788  3789 1
 2526  3787  3788 1
 2527  3791  3792 1
 2528  3790  3791 1
 2529  3794  3795 1
 2530  3793  3794 1
 2531  3797  3798 1
 2532  3796  3797 1
 2533  3800  3801 1
 2534  3799  3800 1
 2535  3803  3804 1
 2536  3802  3803 1
 2537  3806  3807 1
 2538  3805  3806 1
 2539  3809  3810 1
 2540  3808  3809 1
 2541  3812  3813 1
 2542  3811  3812 1
 2543  3815  3816 1
 2544  3814  3815 1
 2545  3818  3819 1
 2546  3817  3818 1
 2547  3821  3822 1
 2548  3820  3821 1
 2549  3824  3825 1
 2550  3823  3824 1
 2551  3827  3828 1
 2552  3826  3827 1
 2553  3830  3831 1
 2554  3829  3830 1
 2555  3833  3834 1
 2556  3832  3833 1
 2557  3836  3837 1
 2558  3835  3836 1
 2559  3839  3840 1
 2560  3838  3839 1
 2561  3842  3843 1
 2562  3841  3842 1
 2563  3845  3846 1
 2564  3844  3845 1
 2565  3848  3849 1
 2566  3847  3848 1
 2567  3851  3852 1
 2568  3850  3851 1
 2569  3854  3855 1
 2570  3853  3854 1
 2571  3857  3858 1
 2572  3856  3857 1
 2573  3860  3861 1
 2574  3859  3860 1
 2575  3863  3864 1
 2576  3862  3863 1
 2577  3866  3867 1
 2578  3865  3866 1
 2579  3869  3870 1
 2580  3868  3869 1
 2581  3872  3873 1
 2582  3871  3872 1
 2583  3875  3876 1
 2584  3874  3875 1
 2585  3878  3879 1
 2586  3877  3878 1
 2587  3881  3882 1
 2588  3880  3881 1
 2589  3884  3885 1
 2590  3883  3884 1
 2591  3887  3888 1
 2592  3886  3887 1
 2593  3890  3891 1
 2594  3889  3890 1
 2595  3893  3894 1
 2596  3892  3893 1
 2597  3896  3897 1
 2598  3895  3896 1
 2599  3899  3900 1
 2600  3898  3899 1
 2601  3902  3903 1
 2602  3901  3902 1
 2603  3905  3906 1
 2604  3904  3905 1
 2605  3908  3909 1
 2606  3907  3908 1
 2607  3911  3912 1
 2608  3910  3911 1
 2609  3914  3915 1
 2610  3913  3914 1
 2611  3917  3918 1
 2612  3916  3917 1
 2613  3920  3921 1
 2614  3919  3920 1
 2615  3923  3924 1
 2616  3922  3923 1
 2617  3926  3927 1
 2618  3925  3926 1
 2619  3929  3930 1
 2620  3928  3929 1
 2621  3932  3933 1
 2622  3931  3932 1
 2623  3935  3936 1
 2624  3934  3935 1
 2625  3938  3939 1
 2626  3937  3938 1
 2627  3941  3942 1
 2628  3940  3941 1
 2629  3944  3945 1
 2630  3943  3944 1
 2631  3947  3948 1
 2632  3946  3947 1
 2633  3950  3951 1
 2634  3949  3950 1
 2635  3953  3954 1
 2636  3952  3953 1
 2637  3956  3957 1
 2638  3955  3956 1
 2639  3959  3960 1
 2640  3958  3959 1
 2641  3962  3963 1
 2642  3961  3962 1
 2643  3965  3966 1
 2644  3964  3965 1
 2645  3968  3969 1
 2646  3967  3968 1
 2647  3971  3972 1
 2648  3970  3971 1
 2649  3974  3975 1
 2650  3973  3974 1
 2651  3977  3978 1
 2652  3976  3977 1
 2653  3980  3981 1
 2654  3979  3980 1
 2655  3983  3984 1
 2656  3982  3983 1
 2657  3986  3987 1
 2658  3985  3986 1
 2659  3989  3990 1
 2660  3988  3989 1
 2661  3992  3993 1
 2662  3991  3992 1
 2663  3995  3996 1
 2664  3994  3995 1
 2665  3998  3999 1
 2666  3997  3998 1
 2667  4001  4002 1
 2668  4000  4001 1
 2669  4004  4005 1
 2670  4003  4004 1
 2671  4007  4008 1
 2672  4006  4007 1
 2673  4010  4011 1
 2674  4009  4010 1
 2675  4013  4014 1
 2676  4012  4013 1
 2677  4016  4017 1
 2678  4015  4016 1
 2679  4019  4020 1
 2680  4018  4019 1
 2681  4022  4023 1
 2682  4021  4022 1
 2683  4025  4026 1
 2684  4024  4025 1
 2685  4028  4029 1
 2686  4027  4028 1
 2687  4031  4032 1
 2688  4030  4031 1
 2689  4034  4035 1
 2690  4033  4034 1
 2691  4037  4038 1
 2692  4036  4037 1
 2693  4040  4041 1
 2694  4039  4040 1
 2695  4043  4044 1
 2696  4042  4043 1
 2697  4046  4047 1
 2698  4045  4046 1
 2699  4049  4050 1
 2700  4048  4049 1
 2701  4052  4053 1
 2702  4051  4052 1
 2703  4055  4056 1
 2704  4054  4055 1
 2705  4058  4059 1
 2706  4057  4058 1
 2707  4061  4062 1
 2708  4060  4061 1
 2709  4064  4065 1
 2710  4063  4064 1
 2711  4067  4068 1
 2712  4066  4067 1
 2713  4070  4071 1
 2714  4069  4070 1
 2715  4073  4074 1
 2716  4072  4073 1
 2717  4076  4077 1
 2718  4075  4076 1
 2719  4079  4080 1
 2720  4078  4079 1
 2721  4082  4083 1
 2722  4081  4082 1
 2723  4085  4086 1
 2724  4084  4085 1
 2725  4088  4089 1
 2726  4087  4088 1
 2727  4091  4092 1
 2728  4090  4091 1
 2729  4094  4095 1
 2730  4093  4094 1
 2731  4097  4098 1
 2732  4096  4097 1
 2733  4100  4101 1
 2734  4099  4100 1
 2735  4103  4104 1
 2736  4102  4103 1
 2737  4106  4107 1
 2738  4105  4106 1
 2739  4109  4110 1
 2740  4108  4109 1
 2741  4112  4113 1
 2742  4111  4112 1
 2743  4115  4116 1
 2744  4114  4115 1
 2745  4118  4119 1
 2746  4117  4118 1
 2747  4121  4122 1
 2748  4120  4121 1
 2749  4124  4125 1
 2750  4123  4124 1
 2751  4127  4128 1
 2752  4126  4127 1
 2753  4130  4131 1
 2754  4129  4130 1
 2755  4133  4134 1
 2756  4132  4133 1
 2757  4136  4137 1
 2758  4135  4136 1
 2759  4139  4140 1
 2760  4138  4139 1
 2761  4142  4143 1
 2762  4141  4142 1
 2763  4145  4146 1
 2764  4144  4145 1
 2765  4148  4149 1
 2766  4147  4148 1
 2767  4151  4152 1
 2768  4150  4151 1
 2769  4154  4155 1
 2770  4153  4154 1
 2771  4157  4158 1
 2772  4156  4157 1
 2773  4160  4161 1
 2774  4159  4160 1
 2775  4163  4164 1
 2776  4162  4163 1
 2777  4166  4167 1
 2778  4165  4166 1
 2779  4169  4170 1
 2780  4168  4169 1
 2781  4172  4173 1
 2782  4171  4172 1
 2783  4175  4176 1
 2784  4174  4175 1
 2785  4178  4179 1
 2786  4177  4178 1
 2787  4181  4182 1
 2788  4180  4181 1
 2789  4184  4185 1
 2790  4183  4184 1
 2791  4187  4188 1
 2792  4186  4187 1
 2793  4190  4191 1
 2794  4189  4190 1
 2795  4193  4194 1
 2796  4192  4193 1
 2797  4196  4197 1
 2798  4195  4196 1
 2799  4199  4200 1
 2800  4198  4199 1
 2801  4202  4203 1
 2802  4201  4202 1
 2803  4205  4206 1
 2804  4204  4205 1
 2805  4208  4209 1
 2806  4207  4208 1
 2807  4211  4212 1
 2808  4210  4211 1
 2809  4214  4215 1
 2810  4213  4214 1
 2811  4217  4218 1
 2812  4216  4217 1
 2813  4220  4221 1
 2814  4219  4220 1
 2815  4223  4224 1
 2816  4222  4223 1
 2817  4226  4227 1
 2818  4225  4226 1
 2819  4229  4230 1
 2820  4228  4229 1
 2821  4232  4233 1
 2822  4231  4232 1
 2823  4235  4236 1
 2824  4234  4235 1
 2825  4238  4239 1
 2826  4237  4238 1
 2827  4241  4242 1
 2828  4240  4241 1
 2829  4244  4245 1
 2830  4243  4244 1
 2831  4247  4248 1
 2832  4246  4247 1
 2833  4250  4251 1
 2834  4249  4250 1
 2835  4253  4254 1
 2836  4252  4253 1
 2837  4256  4257 1
 2838  4255  4256 1
 2839  4259  4260 1
 2840  4258  4259 1
 2841  4262  4263 1
 2842  4261  4262 1
 2843  4265  4266 1
 2844  4264  4265 1
 2845  4268  4269 1
 2846  4267  4268 1
 2847  4271  4272 1
 2848  4270  4271 1
 2849  4274  4275 1
 2850  4273  4274 1
 2851  4277  4278 1
 2852  4276  4277 1
 2853  4280  4281 1
 2854  4279  4280 1
 2855  4283  4284 1
 2856  4282  4283 1
 2857  4286  4287 1
 2858  4285  4286 1
 2859  4289  4290 1
 2860  4288  4289 1
 2861  4292  4293 1
 2862  4291  4292 1
 2863  4295  4296 1
 2864  4294  4295 1
 2865  4298  4299 1
 2866  4297  4298 1
 2867  4301  4302 1
 2868  4300  4301 1
 2869  4304  4305 1
 2870  4303  4304 1
 2871  4307  4308 1
 2872  4306  4307 1
 2873  4310  4311 1
 2874  4309  4310 1
 2875  4313  4314 1
 2876  4312  4313 1
 2877  4316  4317 1
 2878  4315  4316 1
 2879  4319  4320 1
 2880  4318  4319 1
 2881  4322  4323 1
 2882  4321  4322 1
 2883  4325  4326 1
 2884  4324  4325 1
 2885  4328  4329 1
 2886  4327  4328 1
 2887  4331  4332 1
 2888  4330  4331 1
 2889  4334  4335 1
 2890  4333  4334 1
 2891  4337  4338 1
 2892  4336  4337 1
 2893  4340  4341 1
 2894  4339  4340 1
 2895  4343  4344 1
 2896  4342  4343 1
 2897  4346  4347 1
 2898  4345  4346 1
 2899  4349  4350 1
 2900  4348  4349 1
 2901  4352  4353 1
 2902  4351  4352 1
 2903  4355  4356 1
 2904  4354  4355 1
 2905  4358  4359 1
 2906  4357  4358 1
 2907  4361  4362 1
 2908  4360  4361 1
 2909  4364  4365 1
 2910  4363  4364 1
 2911  4367  4368 1
 2912  4366  4367 1
 2913  4370  4371 1
 2914  4369  4370 1
 2915  4373  4374 1
 2916  4372  4373 1
 2917  4376  4377 1
 2918  4375  4376 1
 2919  4379  4380 1
 2920  4378  4379 1
 2921  4382  4383 1
 2922  4381  4382 1
 2923  4385  4386 1
 2924  4384  4385 1
 2925  4388  4389 1
 2926  4387  4388 1
 2927  4391  4392 1
 2928  4390  4391 1
 2929  4394  4395 1
 2930  4393  4394 1
 2931  4397  4398 1
 2932  4396  4397 1
 2933  4400  4401 1
 2934  4399  4400 1
 2935  4403  4404 1
 2936  4402  4403 1
 2937  4406  4407 1
 2938  4405  4406 1
 2939  4409  4410 1
 2940  4408  4409 1
 2941  4412  4413 1
 2942  4411  4412 1
 2943  4415  4416 1
 2944  4414  4415 1
 2945  4418  4419 1
 2946  4417  4418 1
 2947  4421  4422 1
 2948  4420  4421 1
 2949  4424  4425 1
 2950  4423  4424 1
 2951  4427  4428 1
 2952  4426  4427 1
 2953  4430  4431 1
 2954  4429  4430 1
 2955  4433  4434 1
 2956  4432  4433 1
 2957  4436  4437 1
 2958  4435  4436 1
 2959  4439  4440 1
 2960  4438  4439 1
 2961  4442  4443 1
 2962  4441  4442 1
 2963  4445  4446 1
 2964  4444  4445 1
 2965  4448  4449 1
 2966  4447  4448 1
 2967  4451  4452 1
 2968  4450  4451 1
 2969  4454  4455 1
 2970  4453  4454 1
 2971  4457  4458 1
 2972  4456  4457 1
 2973  4460  4461 1
 2974  4459  4460 1
 2975  4463  4464 1
 2976  4462  4463 1
 2977  4466  4467 1
 2978  4465  4466 1
 2979  4469  4470 1
 2980  4468  4469 1
 2981  4472  4473 1
 2982  4471  4472 1
 2983  4475  4476 1
 2984  4474  4475 1
 2985  4478  4479 1
 2986  4477  4478 1
 2987  4481  4482 1
 2988  4480  4481 1
 2989  4484  4485 1
 2990  4483  4484 1
 2991  4487  4488 1
 2992  4486  4487 1
 2993  4490  4491 1
 2994  4489  4490 1
 2995  4493  4494 1
 2996  4492  4493 1
 2997  4496  4497 1
 2998  4495  4496 1
 2999  4499  4500 1
 3000  4498  4499 1
 3001  4502  4503 1
 3002  4501  4502 1
 3003  4505  4506 1
 3004  4504  4505 1
 3005  4508  4509 1
 3006  4507  4508 1
 3007  4511  4512 1
 3008  4510  4511 1
 3009  4514  4515 1
 3010  4513  4514 1
 3011  4517  4518 1
 3012  4516  4517 1
 3013  4520  4521 1
 3014  4519  4520 1
 3015  4523  4524 1
 3016  4522  4523 1
 3017  4526  4527 1
 3018  4525  4526 1
 3019  4529  4530 1
 3020  4528  4529 1
 3021  4532  4533 1
 3022  4531  4532 1
 3023  4535  4536 1
 3024  4534  4535 1
 3025  4538  4539 1
 3026  4537  4538 1
 3027  4541  4542 1
 3028  4540  4541 1
 3029  4544  4545 1
 3030  4543  4544 1
 3031  4547  4548 1
 3032  4546  4547 1
 3033  4550  4551 1
 3034  4549  4550 1
 3035  4553  4554 1
 3036  4552  4553 1
 3037  4556  4557 1
 3038  4555  4556 1
 3039  4559  4560 1
 3040  4558  4559 1
 3041  4562  4563 1
 3042  4561  4562 1
 3043  4565  4566 1
 3044  4564  4565 1
 3045  4568  4569 1
 3046  4567  4568 1
 3047  4571  4572 1
 3048  4570  4571 1
 3049  4574  4575 1
 3050  4573  4574 1
 3051  4577  4578 1
 3052  4576  4577 1
 3053  4580  4581 1
 3054  4579  4580 1
 3055  4583  4584 1
 3056  4582  4583 1
 3057  4586  4587 1
 3058  4585  4586 1
 3059  4589  4590 1
 3060  4588  4589 1
 3061  4592  4593 1
 3062  4591  4592 1
 3063  4595  4596 1
 3064  4594  4595 1
 3065  4598  4599 1
 3066  4597  4598 1
 3067  4601  4602 1
 3068  4600  4601 1
 3069  4604  4605 1
 3070  4603  4604 1
 3071  4607  4608 1
 3072  4606  4607 1
 3073  4610  4611 1
 3074  4609  4610 1
 3075  4613  4614 1
 3076  4612  4613 1
 3077  4616  4617 1
 3078  4615  4616 1
 3079  4619  4620 1
 3080  4618  4619 1
 3081  4622  4623 1
 3082  4621  4622 1
 3083  4625  4626 1
 3084  4624  4625 1
 3085  4628  4629 1
 3086  4627  4628 1
 3087  4631  4632 1
 3088  4630  4631 1
 3089  4634  4635 1
 3090  4633  4634 1
 3091  4637  4638 1
 3092  4636  4637 1
 3093  4640  4641 1
 3094  4639  4640 1
 3095  4643  4644 1
 3096  4642  4643 1
 3097  4646  4647 1
 3098  4645  4646 1
 3099  4649  4650 1
 3100  4648  4649 1
 3101  4652  4653 1
 3102  4651  4652 1
 3103  4655  4656 1
 3104  4654  4655 1
 3105  4658  4659 1
 3106  4657  4658 1
 3107  4661  4662 1
 3108  4660  4661 1
 3109  4664  4665 1
 3110  4663  4664 1
 3111  4667  4668 1
 3112  4666  4667 1
 3113  4670  4671 1
 3114  4669  4670 1
 3115  4673  4674 1
 3116  4672  4673 1
 3117  4676  4677 1
 3118  4675  4676 1
 3119  4679  4680 1
 3120  4678  4679 1
 3121  4682  4683 1
 3122  4681  4682 1
 3123  4685  4686 1
 3124  4684  4685 1
 3125  4688  4689 1
 3126  4687  4688 1
 3127  4691  4692 1
 3128  4690  4691 1
 3129  4694  4695 1
 3130  4693  4694 1
 3131  4697  4698 1
 3132  4696  4697 1
 3133  4700  4701 1
 3134  4699  4700 1
 3135  4703  4704 1
 3136  4702  4703 1
 3137  4706  4707 1
 3138  4705  4706 1
 3139  4709  4710 1
 3140  4708  4709 1
 3141  4712  4713 1
 3142  4711  4712 1
 3143  4715  4716 1
 3144  4714  4715 1
 3145  4718  4719 1
 3146  4717  4718 1
 3147  4721  4722 1
 3148  4720  4721 1
 3149  4724  4725 1
 3150  4723  4724 1
 3151  4727  4728 1
 3152  4726  4727 1
 3153  4730  4731 1
 3154  4729  4730 1
 3155  4733  4734 1
 3156  4732  4733 1
 3157  4736  4737 1
 3158  4735  4736 1
 3159  4739  4740 1
 3160  4738  4739 1
 3161  4742  4743 1
 3162  4741  4742 1
 3163  4745  4746 1
 3164  4744  4745 1
 3165  4748  4749 1
 3166  4747  4748 1
 3167  4751  4752 1
 3168  4750  4751 1
 3169  4754  4755 1
 3170  4753  4754 1
 3171  4757  4758 1
 3172  4756  4757 1
 3173  4760  4761 1
 3174  4759  4760 1
 3175  4763  4764 1
 3176  4762  4763 1
 3177  4766  4767 1
 3178  4765  4766 1
 3179  4769  4770 1
 3180  4768  4769 1
 3181  4772  4773 1
 3182  4771  4772 1
 3183  4775  4776 1
 3184  4774  4775 1
 3185  4778  4779 1
 3186  4777  4778 1
 3187  4781  4782 1
 3188  4780  4781 1
 3189  4784  4785 1
 3190  4783  4784 1
 3191  4787  4788 1
 3192  4786  4787 1
 3193  4790  4791 1
 3194  4789  4790 1
 3195  4793  4794 1
 3196  4792  4793 1
 3197  4796  4797 1
 3198  4795  4796 1
 3199  4799  4800 1
 3200  4798  4799 1
 3201  4802  4803 1
 3202  4801  4802 1
 3203  4805  4806 1
 3204  4804  4805 1
 3205  4808  4809 1
 3206  4807  4808 1
 3207  4811  4812 1
 3208  4810  4811 1
 3209  4814  4815 1
 3210  4813  4814 1
 3211  4817  4818 1
 3212  4816  4817 1
 3213  4820  4821 1
 3214  4819  4820 1
 3215  4823  4824 1
 3216  4822  4823 1
 3217  4826  4827 1
 3218  4825  4826 1
 3219  4829  4830 1
 3220  4828  4829 1
 3221  4832  4833 1
 3222  4831  4832 1
 3223  4835  4836 1
 3224  4834  4835 1
 3225  4838  4839 1
 3226  4837  4838 1
 3227  4841  4842 1
 3228  4840  4841 1
 3229  4844  4845 1
 3230  4843  4844 1
 3231  4847  4848 1
 3232  4846  4847 1
 3233  4850  4851 1
 3234  4849  4850 1
 3235  4853  4854 1
 3236  4852  4853 1
 3237  4856  4857 1
 3238  4855  4856 1
 3239  4859  4860 1
 3240  4858  4859 1
 3241  4862  4863 1
 3242  4861  4862 1
 3243  4865  4866 1
 3244  4864  4865 1
 3245  4868  4869 1
 3246  4867  4868 1
 3247  4871  4872 1
 3248  4870  4871 1
 3249  4874  4875 1
 3250  4873  4874 1
 3251  4877  4878 1
 3252  4876  4877 1
 3253  4880  4881 1
 3254  4879  4880 1
 3255  4883  4884 1
 3256  4882  4883 1
 3257  4886  4887 1
 3258  4885  4886 1
 3259  4889  4890 1
 3260  4888  4889 1
 3261  4892  4893 1
 3262  4891  4892 1
 3263  4895  4896 1
 3264  4894  4895 1
 3265  4898  4899 1
 3266  4897  4898 1
 3267  4901  4902 1
 3268  4900  4901 1
 3269  4904  4905 1
 3270  4903  4904 1
 3271  4907  4908 1
 3272  4906  4907 1
 3273  4910  4911 1
 3274  4909  4910 1
 3275  4913  4914 1
 3276  4912  4913 1
 3277  4916  4917 1
 3278  4915  4916 1
 3279  4919  4920 1
 3280  4918  4919 1
 3281  4922  4923 1
 3282  4921  4922 1
 3283  4925  4926 1
 3284  4924  4925 1
 3285  4928  4929 1
 3286  4927  4928 1
 3287  4931  4932 1
 3288  4930  4931 1
 3289  4934  4935 1
 3290  4933  4934 1
 3291  4937  4938 1
 3292  4936  4937 1
 3293  4940  4941 1
 3294  4939  4940 1
 3295  4943  4944 1
 3296  4942  4943 1
 3297  4946  4947 1
 3298  4945  4946 1
 3299  4949  4950 1
 3300  4948  4949 1
 3301  4952  4953 1
 3302  4951  4952 1
 3303  4955  4956 1
 3304  4954  4955 1
 3305  4958  4959 1
 3306  4957  4958 1
 3307  4961  4962 1
 3308  4960  4961 1
 3309  4964  4965 1
 3310  4963  4964 1
 3311  4967  4968 1
 3312  4966  4967 1
 3313  4970  4971 1
 3314  4969  4970 1
 3315  4973  4974 1
 3316  4972  4973 1
 3317  4976  4977 1
 3318  4975  4976 1
 3319  4979  4980 1
 3320  4978  4979 1
 3321  4982  4983 1
 3322  4981  4982 1
 3323  4985  4986 1
 3324  4984  4985 1
 3325  4988  4989 1
 3326  4987  4988 1
 3327  4991  4992 1
 3328  4990  4991 1
 3329  4994  4995 1
 3330  4993  4994 1
 3331  4997  4998 1
 3332  4996  4997 1
 3333  5000  5001 1
 3334  4999  5000 1
 3335  5003  5004 1
 3336  5002  5003 1
 3337  5006  5007 1
 3338  5005  5006 1
 3339  5009  5010 1
 3340  5008  5009 1
 3341  5012  5013 1
 3342  5011  5012 1
 3343  5015  5016 1
 3344  5014  5015 1
 3345  5018  5019 1
 3346  5017  5018 1
 3347  5021  5022 1
 3348  5020  5021 1
 3349  5024  5025 1
 3350  5023  5024 1
 3351  5027  5028 1
 3352  5026  5027 1
 3353  5030  5031 1
 3354  5029  5030 1
 3355  5033  5034 1
 3356  5032  5033 1
 3357  5036  5037 1
 3358  5035  5036 1
 3359  5039  5040 1
 3360  5038  5039 1
 3361  5042  5043 1
 3362  5041  5042 1
 3363  5045  5046 1
 3364  5044  5045 1
 3365  5048  5049 1
 3366  5047  5048 1
 3367  5051  5052 1
 3368  5050  5051 1
 3369  5054  5055 1
 3370  5053  5054 1
 3371  5057  5058 1
 3372  5056  5057 1
 3373  5060  5061 1
 3374  5059  5060 1
 3375  5063  5064 1
 3376  5062  5063 1
 3377  5066  5067 1
 3378  5065  5066 1
 3379  5069  5070 1
 3380  5068  5069 1
 3381  5072  5073 1
 3382  5071  5072 1
 3383  5075  5076 1
 3384  5074  5075 1
 3385  5078  5079 1
 3386  5077  5078 1
 3387  5081  5082 1
 3388  5080  5081 1
 3389  5084  5085 1
 3390  5083  5084 1
 3391  5087  5088 1
 3392  5086  5087 1
 3393  5090  5091 1
 3394  5089  5090 1
 3395  5093  5094 1
 3396  5092  5093 1
 3397  5096  5097 1
 3398  5095  5096 1
 3399  5099  5100 1
 3400  5098  5099 1
 3401  5102  5103 1
 3402  5101  5102 1
 3403  5105  5106 1
 3404  5104  5105 1
 3405  5108  5109 1
 3406  5107  5108 1
 3407  5111  5112 1
 3408  5110  5111 1
 3409  5114  5115 1
 3410  5113  5114 1
 3411  5117  5118 1
 3412  5116  5117 1
 3413  5120  5121 1
 3414  5119  5120 1
 3415  5123  5124 1
 3416  5122  5123 1
 3417  5126  5127 1
 3418  5125  5126 1
 3419  5129  5130 1
 3420  5128  5129 1
 3421  5132  5133 1
 3422  5131  5132 1
 3423  5135  5136 1
 3424  5134  5135 1
 3425  5138  5139 1
 3426  5137  5138 1
 3427  5141  5142 1
 3428  5140  5141 1
 3429  5144  5145 1
 3430  5143  5144 1
 3431  5147  5148 1
 3432  5146  5147 1
 3433  5150  5151 1
 3434  5149  5150 1
 3435  5153  5154 1
 3436  5152  5153 1
 3437  5156  5157 1
 3438  5155  5156 1
 3439  5159  5160 1
 3440  5158  5159 1
 3441  5162  5163 1
 3442  5161  5162 1
 3443  5165  5166 1
 3444  5164  5165 1
 3445  5168  5169 1
 3446  5167  5168 1
 3447  5171  5172 1
 3448  5170  5171 1
 3449  5174  5175 1
 3450  5173  5174 1
 3451  5177  5178 1
 3452  5176  5177 1
 3453  5180  5181 1
 3454  5179  5180 1
 3455  5183  5184 1
 3456  5182  5183 1
 3457  5186  5187 1
 3458  5185  5186 1
 3459  5189  5190 1
 3460  5188  5189 1
 3461  5192  5193 1
 3462  5191  5192 1
 3463  5195  5196 1
 3464  5194  5195 1
 3465  5198  5199 1
 3466  5197  5198 1
 3467  5201  5202 1
 3468  5200  5201 1
 3469  5204  5205 1
 3470  5203  5204 1
 3471  5207  5208 1
 3472  5206  5207 1
 3473  5210  5211 1
 3474  5209  5210 1
 3475  5213  5214 1
 3476  5212  5213 1
 3477  5216  5217 1
 3478  5215  5216 1
 3479  5219  5220 1
 3480  5218  5219 1
 3481  5222  5223 1
 3482  5221  5222 1
 3483  5225  5226 1
 3484  5224  5225 1
 3485  5228  5229 1
 3486  5227  5228 1
 3487  5231  5232 1
 3488  5230  5231 1
 3489  5234  5235 1
 3490  5233  5234 1
 3491  5237  5238 1
 3492  5236  5237 1
 3493  5240  5241 1
 3494  5239  5240 1
 3495  5243  5244 1
 3496  5242  5243 1
 3497  5246  5247 1
 3498  5245  5246 1
 3499  5249  5250 1
 3500  5248  5249 1
 3501  5252  5253 1
 3502  5251  5252 1
 3503  5255  5256 1
 3504  5254  5255 1
 3505  5258  5259 1
 3506  5257  5258 1
 3507  5261  5262 1
 3508  5260  5261 1
 3509  5264  5265 1
 3510  5263  5264 1
 3511  5267  5268 1
 3512  5266  5267 1
 3513  5270  5271 1
 3514  5269  5270 1
 3515  5273  5274 1
 3516  5272  5273 1
 3517  5276  5277 1
 3518  5275  5276 1
 3519  5279  5280 1
 3520  5278  5279 1
 3521  5282  5283 1
 3522  5281  5282 1
 3523  5285  5286 1
 3524  5284  5285 1
 3525  5288  5289 1
 3526  5287  5288 1
 3527  5291  5292 1
 3528  5290  5291 1
 3529  5294  5295 1
 3530  5293  5294 1
 3531  5297  5298 1
 3532  5296  5297 1
 3533  5300  5301 1
 3534  5299  5300 1
 3535  5303  5304 1
 3536  5302  5303 1
 3537  5306  5307 1
 3538  5305  5306 1
 3539  5309  5310 1
 3540  5308  5309 1
 3541  5312  5313 1
 3542  5311  5312 1
 3543  5315  5316 1
 3544  5314  5315 1
 3545  5318  5319 1
 3546  5317  5318 1
 3547  5321  5322 1
 3548  5320  5321 1
 3549  5324  5325 1
 3550  5323  5324 1
 3551  5327  5328 1
 3552  5326  5327 1
 3553  5330  5331 1
 3554  5329  5330 1
 3555  5333  5334 1
 3556  5332  5333 1
 3557  5336  5337 1
 3558  5335  5336 1
 3559  5339  5340 1
 3560  5338  5339 1
 3561  5342  5343 1
 3562  5341  5342 1
 3563  5345  5346 1
 3564  5344  5345 1
 3565  5348  5349 1
 3566  5347  5348 1
 3567  5351  5352 1
 3568  5350  5351 1
 3569  5354  5355 1
 3570  5353  5354 1
 3571  5357  5358 1
 3572  5356  5357 1
 3573  5360  5361 1
 3574  5359  5360 1
 3575  5363  5364 1
 3576  5362  5363 1
 3577  5366  5367 1
 3578  5365  5366 1
 3579  5369  5370 1
 3580  5368  5369 1
 3581  5372  5373 1
 3582  5371  5372 1
 3583  5375  5376 1
 3584  5374  5375 1
 3585  5378  5379 1
 3586  5377  5378 1
 3587  5381  5382 1
 3588  5380  5381 1
 3589  5384  5385 1
 3590  5383  5384 1
 3591  5387  5388 1
 3592  5386  5387 1
 3593  5390  5391 1
 3594  5389  5390 1
 3595  5393  5394 1
 3596  5392  5393 1
 3597  5396  5397 1
 3598  5395  5396 1
 3599  5399  5400 1
 3600  5398  5399 1
 3601  5402  5403 1
 3602  5401  5402 1
 3603  5405  5406 1
 3604  5404  5405 1
 3605  5408  5409 1
 3606  5407  5408 1
 3607  5411  5412 1
 3608  5410  5411 1
 3609  5414  5415 1
 3610  5413  5414 1
 3611  5417  5418 1
 3612  5416  5417 1
 3613  5420  5421 1
 3614  5419  5420 1
 3615  5423  5424 1
 3616  5422  5423 1
 3617  5426  5427 1
 3618  5425  5426 1
 3619  5429  5430 1
 3620  5428  5429 1
 3621  5432  5433 1
 3622  5431  5432 1
 3623  5435  5436 1
 3624  5434  5435 1
 3625  5438  5439 1
 3626  5437  5438 1
 3627  5441  5442 1
 3628  5440  5441 1
 3629  5444  5445 1
 3630  5443  5444 1
 3631  5447  5448 1
 3632  5446  5447 1
 3633  5450  5451 1
 3634  5449  5450 1
 3635  5453  5454 1
 3636  5452  5453 1
 3637  5456  5457 1
 3638  5455  5456 1
 3639  5459  5460 1
 3640  5458  5459 1
 3641  5462  5463 1
 3642  5461  5462 1
 3643  5465  5466 1
 3644  5464  5465 1
 3645  5468  5469 1
 3646  5467  5468 1
 3647  5471  5472 1
 3648  5470  5471 1
 3649  5474  5475 1
 3650  5473  5474 1
 3651  5477  5478 1
 3652  5476  5477 1
 3653  5480  5481 1
 3654  5479  5480 1
 3655  5483  5484 1
 3656  5482  5483 1
 3657  5486  5487 1
 3658  5485  5486 1
 3659  5489  5490 1
 3660  5488  5489 1
 3661  5492  5493 1
 3662  5491  5492 1
 3663  5495  5496 1
 3664  5494  5495 1
 3665  5498  5499 1
 3666  5497  5498 1
 3667  5501  5502 1
 3668  5500  5501 1
 3669  5504  5505 1
 3670  5503  5504 1
 3671  5507  5508 1
 3672  5506  5507 1
 3673  5510  5511 1
 3674  5509  5510 1
 3675  5513  5514 1
 3676  5512  5513 1
 3677  5516  5517 1
 3678  5515  5516 1
 3679  5519  5520 1
 3680  5518  5519 1
 3681  5522  5523 1
 3682  5521  5522 1
 3683  5525  5526 1
 3684  5524  5525 1
 3685  5528  5529 1
 3686  5527  5528 1
 3687  5531  5532 1
 3688  5530  5531 1
 3689  5534  5535 1
 3690  5533  5534 1
 3691  5537  5538 1
 3692  5536  5537 1
 3693  5540  5541 1
 3694  5539  5540 1
 3695  5543  5544 1
 3696  5542  5543 1
 3697  5546  5547 1
 3698  5545  5546 1
 3699  5549  5550 1
 3700  5548  5549 1
 3701  5552  5553 1
 3702  5551  5552 1
 3703  5555  5556 1
 3704  5554  5555 1
 3705  5558  5559 1
 3706  5557  5558 1
 3707  5561  5562 1
 3708  5560  5561 1
 3709  5564  5565 1
 3710  5563  5564 1
 3711  5567  5568 1
 3712  5566  5567 1
 3713  5570  5571 1
 3714  5569  5570 1
 3715  5573  5574 1
 3716  5572  5573 1
 3717  5576  5577 1
 3718  5575  5576 1
 3719  5579  5580 1
 3720  5578  5579 1
 3721  5582  5583 1
 3722  5581  5582 1
 3723  5585  5586 1
 3724  5584  5585 1
 3725  5588  5589 1
 3726  5587  5588 1
 3727  5591  5592 1
 3728  5590  5591 1
 3729  5594  5595 1
 3730  5593  5594 1
 3731  5597  5598 1
 3732  5596  5597 1
 3733  5600  5601 1
 3734  5599  5600 1
 3735  5603  5604 1
 3736  5602  5603 1
 3737  5606  5607 1
 3738  5605  5606 1
 3739  5609  5610 1
 3740  5608  5609 1
 3741  5612  5613 1
 3742  5611  5612 1
 3743  5615  5616 1
 3744  5614  5615 1
 3745  5618  5619 1
 3746  5617  5618 1
 3747  5621  5622 1
 3748  5620  5621 1
 3749  5624  5625 1
 3750  5623  5624 1
 3751  5627  5628 1
 3752  5626  5627 1
 3753  5630  5631 1
 3754  5629  5630 1
 3755  5633  5634 1
 3756  5632  5633 1
 3757  5636  5637 1
 3758  5635  5636 1
 3759  5639  5640 1
 3760  5638  5639 1
 3761  5642  5643 1
 3762  5641  5642 1
 3763  5645  5646 1
 3764  5644  5645 1
 3765  5648  5649 1
 3766  5647  5648 1
 3767  5651  5652 1
 3768  5650  5651 1
 3769  5654  5655 1
 3770  5653  5654 1
 3771  5657  5658 1
 3772  5656  5657 1
 3773  5660  5661 1
 3774  5659  5660 1
 3775  5663  5664 1
 3776  5662  5663 1
 3777  5666  5667 1
 3778  5665  5666 1
 3779  5669  5670 1
 3780  5668  5669 1
 3781  5672  5673 1
 3782  5671  5672 1
 3783  5675  5676 1
 3784  5674  5675 1
 3785  5678  5679 1
 3786  5677  5678 1
 3787  5681  5682 1
 3788  5680  5681 1
 3789  5684  5685 1
 3790  5683  5684 1
 3791  5687  5688 1
 3792  5686  5687 1
 3793  5690  5691 1
 3794  5689  5690 1
 3795  5693  5694 1
 3796  5692  5693 1
 3797  5696  5697 1
 3798  5695  5696 1
 3799  5699  5700 1
 3800  5698  5699 1
 3801  5702  5703 1
 3802  5701  5702 1
 3803  5705  5706 1
 3804  5704  5705 1
 3805  5708  5709 1
 3806  5707  5708 1
 3807  5711  5712 1
 3808  5710  5711 1
 3809  5714  5715 1
 3810  5713  5714 1
 3811  5717  5718 1
 3812  5716  5717 1
 3813  5720  5721 1
 3814  5719  5720 1
 3815  5723  5724 1
 3816  5722  5723 1
 3817  5726  5727 1
 3818  5725  5726 1
 3819  5729  5730 1
 3820  5728  5729 1
 3821  5732  5733 1
 3822  5731  5732 1
 3823  5735  5736 1
 3824  5734  5735 1
 3825  5738  5739 1
 3826  5737  5738 1
 3827  5741  5742 1
 3828  5740  5741 1
 3829  5744  5745 1
 3830  5743  5744 1
 3831  5747  5748 1
 3832  5746  5747 1
 3833  5750  5751 1
 3834  5749  5750 1
 3835  5753  5754 1
 3836  5752  5753 1
 3837  5756  5757 1
 3838  5755  5756 1
 3839  5759  5760 1
 3840  5758  5759 1
 3841  5762  5763 1
 3842  5761  5762 1
 3843  5765  5766 1
 3844  5764  5765 1
 3845  5768  5769 1
 3846  5767  5768 1
 3847  5771  5772 1
 3848  5770  5771 1
 3849  5774  5775 1
 3850  5773  5774 1
 3851  5777  5778 1
 3852  5776  5777 1
 3853  5780  5781 1
 3854  5779  5780 1
 3855  5783  5784 1
 3856  5782  5783 1
 3857  5786  5787 1
 3858  5785  5786 1
 3859  5789  5790 1
 3860  5788  5789 1
 3861  5792  5793 1
 3862  5791  5792 1
 3863  5795  5796 1
 3864  5794  5795 1
 3865  5798  5799 1
 3866  5797  5798 1
 3867  5801  5802 1
 3868  5800  5801 1
 3869  5804  5805 1
 3870  5803  5804 1
 3871  5807  5808 1
 3872  5806  5807 1
 3873  5810  5811 1
 3874  5809  5810 1
 3875  5813  5814 1
 3876  5812  5813 1
 3877  5816  5817 1
 3878  5815  5816 1
 3879  5819  5820 1
 3880  5818  5819 1
 3881  5822  5823 1
 3882  5821  5822 1
 3883  5825  5826 1
 3884  5824  5825 1
 3885  5828  5829 1
 3886  5827  5828 1
 3887  5831  5832 1
 3888  5830  5831 1
 3889  5834  5835 1
 3890  5833  5834 1
 3891  5837  5838 1
 3892  5836  5837 1
 3893  5840  5841 1
 3894  5839  5840 1
 3895  5843  5844 1
 3896  5842  5843 1
 3897  5846  5847 1
 3898  5845  5846 1
 3899  5849  5850 1
 3900  5848  5849 1
 3901  5852  5853 1
 3902  5851  5852 1
 3903  5855  5856 1
 3904  5854  5855 1
 3905  5858  5859 1
 3906  5857  5858 1
 3907  5861  5862 1
 3908  5860  5861 1
 3909  5864  5865 1
 3910  5863  5864 1
 3911  5867  5868 1
 3912  5866  5867 1
 3913  5870  5871 1
 3914  5869  5870 1
 3915  5873  5874 1
 3916  5872  5873 1
 3917  5876  5877 1
 3918  5875  5876 1
 3919  5879  5880 1
 3920  5878  5879 1
 3921  5882  5883 1
 3922  5881  5882 1
 3923  5885  5886 1
 3924  5884  5885 1
 3925  5888  5889 1
 3926  5887  5888 1
 3927  5891  5892 1
 3928  5890  5891 1
 3929  5894  5895 1
 3930  5893  5894 1
 3931  5897  5898 1
 3932  5896  5897 1
 3933  5900  5901 1
 3934  5899  5900 1
 3935  5903  5904 1
 3936  5902  5903 1
 3937  5906  5907 1
 3938  5905  5906 1
 3939  5909  5910 1
 3940  5908  5909 1
 3941  5912  5913 1
 3942  5911  5912 1
 3943  5915  5916 1
 3944  5914  5915 1
 3945  5918  5919 1
 3946  5917  5918 1
 3947  5921  5922 1
 3948  5920  5921 1
 3949  5924  5925 1
 3950  5923  5924 1
 3951  5927  5928 1
 3952  5926  5927 1
 3953  5930  5931 1
 3954  5929  5930 1
 3955  5933  5934 1
 3956  5932  5933 1
 3957  5936  5937 1
 3958  5935  5936 1
 3959  5939  5940 1
 3960  5938  5939 1
 3961  5942  5943 1
 3962  5941  5942 1
 3963  5945  5946 1
 3964  5944  5945 1
 3965  5948  5949 1
 3966  5947  5948 1
 3967  5951  5952 1
 3968  5950  5951 1
 3969  5954  5955 1
 3970  5953  5954 1
 3971  5957  5958 1
 3972  5956  5957 1
 3973  5960  5961 1
 3974  5959  5960 1
 3975  5963  5964 1
 3976  5962  5963 1
 3977  5966  5967 1
 3978  5965  5966 1
 3979  5969  5970 1
 3980  5968  5969 1
 3981  5972  5973 1
 3982  5971  5972 1
 3983  5975  5976 1
 3984  5974  5975 1
 3985  5978  5979 1
 3986  5977  5978 1
 3987  5981  5982 1
 3988  5980  5981 1
 3989  5984  5985 1
 3990  5983  5984 1
 3991  5987  5988 1
 3992  5986  5987 1
 3993  5990  5991 1
 3994  5989  5990 1
 3995  5993  5994 1
 3996  5992  5993 1
 3997  5996  5997 1
 3998  5995  5996 1
 3999  5999  6000 1
 4000  5998  5999 1
 4001  6002  6003 1
 4002  6001  6002 1
 4003  6005  6006 1
 4004  6004  6005 1
 4005  6008  6009 1
 4006  6007  6008 1
 4007  6011  6012 1
 4008  6010  6011 1
 4009  6014  6015 1
 4010  6013  6014 1
 4011  6017  6018 1
 4012  6016  6017 1
 4013  6020  6021 1
 4014  6019  6020 1
 4015  6023  6024 1
 4016  6022  6023 1
 4017  6026  6027 1
 4018  6025  6026 1
 4019  6029  6030 1
 4020  6028  6029 1
 4021  6032  6033 1
 4022  6031  6032 1
 4023  6035  6036 1
 4024  6034  6035 1
 4025  6038  6039 1
 4026  6037  6038 1
 4027  6041  6042 1
 4028  6040  6041 1
 4029  6044  6045 1
 4030  6043  6044 1
 4031  6047  6048 1
 4032  6046  6047 1
 4033  6050  6051 1
 4034  6049  6050 1
 4035  6053  6054 1
 4036  6052  6053 1
 4037  6056  6057 1
 4038  6055  6056 1
 4039  6059  6060 1
 4040  6058  6059 1
 4041  6062  6063 1
 4042  6061  6062 1
 4043  6065  6066 1
 4044  6064  6065 1
 4045  6068  6069 1
 4046  6067  6068 1
 4047  6071  6072 1
 4048  6070  6071 1
 4049  6074  6075 1
 4050  6073  6074 1
 4051  6077  6078 1
 4052  6076  6077 1
 4053  6080  6081 1
 4054  6079  6080 1
 4055  6083  6084 1
 4056  6082  6083 1
 4057  6086  6087 1
 4058  6085  6086 1
 4059  6089  6090 1
 4060  6088  6089 1
 4061  6092  6093 1
 4062  6091  6092 1
 4063  6095  6096 1
 4064  6094  6095 1
 4065  6098  6099 1
 4066  6097  6098 1
 4067  6101  6102 1
 4068  6100  6101 1
 4069  6104  6105 1
 4070  6103  6104 1
 4071  6107  6108 1
 4072  6106  6107 1
 4073  6110  6111 1
 4074  6109  6110 1
 4075  6113  6114 1
 4076  6112  6113 1
 4077  6116  6117 1
 4078  6115  6116 1
 4079  6119  6120 1
 4080  6118  6119 1
 4081  6122  6123 1
 4082  6121  6122 1
 4083  6125  6126 1
 4084  6124  6125 1
 4085  6128  6129 1
 4086  6127  6128 1
 4087  6131  6132 1
 4088  6130  6131 1
 4089  6134  6135 1
 4090  6133  6134 1
 4091  6137  6138 1
 4092  6136  6137 1
 4093  6140  6141 1
 4094  6139  6140 1
 4095  6143  6144 1
 4096  6142  6143 1
 4097  6146  6147 1
 4098  6145  6146 1
 4099  6149  6150 1
 4100  6148  6149 1
 4101  6152  6153 1
 4102  6151  6152 1
 4103  6155  6156 1
 4104  6154  6155 1
 4105  6158  6159 1
 4106  6157  6158 1
 4107  6161  6162 1
 4108  6160  6161 1
 4109  6164  6165 1
 4110  6163  6164 1
 4111  6167  6168 1
 4112  6166  6167 1
 4113  6170  6171 1
 4114  6169  6170 1
 4115  6173  6174 1
 4116  6172  6173 1
 4117  6176  6177 1
 4118  6175  6176 1
 4119  6179  6180 1
 4120  6178  6179 1
 4121  6182  6183 1
 4122  6181  6182 1
 4123  6185  6186 1
 4124  6184  6185 1
 4125  6188  6189 1
 4126  6187  6188 1
 4127  6191  6192 1
 4128  6190  6191 1
 4129  6194  6195 1
 4130  6193  6194 1
 4131  6197  6198 1
 4132  6196  6197 1
 4133  6200  6201 1
 4134  6199  6200 1
 4135  6203  6204 1
 4136  6202  6203 1
 4137  6206  6207 1
 4138  6205  6206 1
 4139  6209  6210 1
 4140  6208  6209 1
 4141  6212  6213 1
 4142  6211  6212 1
 4143  6215  6216 1
 4144  6214  6215 1
 4145  6218  6219 1
 4146  6217  6218 1
 4147  6221  6222 1
 4148  6220  6221 1
 4149  6224  6225 1
 4150  6223  6224 1
 4151  6227  6228 1
 4152  6226  6227 1
 4153  6230  6231 1
 4154  6229  6230 1
 4155  6233  6234 1
 4156  6232  6233 1
 4157  6236  6237 1
 4158  6235  6236 1
 4159  6239  6240 1
 4160  6238  6239 1
 4161  6242  6243 1
 4162  6241  6242 1
 4163  6245  6246 1
 4164  6244  6245 1
 4165  6248  6249 1
 4166  6247  6248 1
 4167  6251  6252 1
 4168  6250  6251 1
 4169  6254  6255 1
 4170  6253  6254 1
 4171  6257  6258 1
 4172  6256  6257 1
 4173  6260  6261 1
 4174  6259  6260 1
 4175  6263  6264 1
 4176  6262  6263 1
 4177  6266  6267 1
 4178  6265  6266 1
 4179  6269  6270 1
 4180  6268  6269 1
 4181  6272  6273 1
 4182  6271  6272 1
 4183  6275  6276 1
 4184  6274  6275 1
 4185  6278  6279 1
 4186  6277  6278 1
 4187  6281  6282 1
 4188  6280  6281 1
 4189  6284  6285 1
 4190  6283  6284 1
 4191  6287  6288 1
 4192  6286  6287 1
 4193  6290  6291 1
 4194  6289  6290 1
 4195  6293  6294 1
 4196  6292  6293 1
 4197  6296  6297 1
 4198  6295  6296 1
 4199  6299  6300 1
 4200  6298  6299 1
 4201  6302  6303 1
 4202  6301  6302 1
 4203  6305  6306 1
 4204  6304  6305 1
 4205  6308  6309 1
 4206  6307  6308 1
 4207  6311  6312 1
 4208  6310  6311 1
 4209  6314  6315 1
 4210  6313  6314 1
 4211  6317  6318 1
 4212  6316  6317 1
 4213  6320  6321 1
 4214  6319  6320 1
 4215  6323  6324 1
 4216  6322  6323 1
 4217  6326  6327 1
 4218  6325  6326 1
 4219  6329  6330 1
 4220  6328  6329 1
 4221  6332  6333 1
 4222  6331  6332 1
 4223  6335  6336 1
 4224  6334  6335 1
 4225  6338  6339 1
 4226  6337  6338 1
 4227  6341  6342 1
 4228  6340  6341 1
 4229  6344  6345 1
 4230  6343  6344 1
 4231  6347  6348 1
 4232  6346  6347 1
 4233  6350  6351 1
 4234  6349  6350 1
 4235  6353  6354 1
 4236  6352  6353 1
 4237  6356  6357 1
 4238  6355  6356 1
 4239  6359  6360 1
 4240  6358  6359 1
 4241  6362  6363 1
 4242  6361  6362 1
 4243  6365  6366 1
 4244  6364  6365 1
 4245  6368  6369 1
 4246  6367  6368 1
 4247  6371  6372 1
 4248  6370  6371 1
 4249  6374  6375 1
 4250  6373  6374 1
 4251  6377  6378 1
 4252  6376  6377 1
 4253  6380  6381 1
 4254  6379  6380 1
 4255  6383  6384 1
 4256  6382  6383 1
 4257  6386  6387 1
 4258  6385  6386 1
 4259  6389  6390 1
 4260  6388  6389 1
 4261  6392  6393 1
 4262  6391  6392 1
 4263  6395  6396 1
 4264  6394  6395 1
 4265  6398  6399 1
 4266  6397  6398 1
 4267  6401  6402 1
 4268  6400  6401 1
 4269  6404  6405 1
 4270  6403  6404 1
 4271  6407  6408 1
 4272  6406  6407 1
 4273  6410  6411 1
 4274  6409  6410 1
 4275  6413  6414 1
 4276  6412  6413 1
 4277  6416  6417 1
 4278  6415  6416 1
 4279  6419  6420 1
 4280  6418  6419 1
 4281  6422  6423 1
 4282  6421  6422 1
 4283  6425  6426 1
 4284  6424  6425 1
 4285  6428  6429 1
 4286  6427  6428 1
 4287  6431  6432 1
 4288  6430  6431 1
 4289  6434  6435 1
 4290  6433  6434 1
 4291  6437  6438 1
 4292  6436  6437 1
 4293  6440  6441 1
 4294  6439  6440 1
 4295  6443  6444 1
 4296  6442  6443 1
 4297  6446  6447 1
 4298  6445  6446 1
 4299  6449  6450 1
 4300  6448  6449 1
 4301  6452  6453 1
 4302  6451  6452 1
 4303  6455  6456 1
 4304  6454  6455 1
 4305  6458  6459 1
 4306  6457  6458 1
 4307  6461  6462 1
 4308  6460  6461 1
 4309  6464  6465 1
 4310  6463  6464 1
 4311  6467  6468 1
 4312  6466  6467 1
 4313  6470  6471 1
 4314  6469  6470 1
 4315  6473  6474 1
 4316  6472  6473 1
 4317  6476  6477 1
 4318  6475  6476 1
 4319  6479  6480 1
 4320  6478  6479 1
 4321  6482  6483 1
 4322  6481  6482 1
 4323  6485  6486 1
 4324  6484  6485 1
 4325  6488  6489 1
 4326  6487  6488 1
 4327  6491  6492 1
 4328  6490  6491 1
 4329  6494  6495 1
 4330  6493  6494 1
 4331  6497  6498 1
 4332  6496  6497 1
 4333  6500  6501 1
 4334  6499  6500 1
 4335  6503  6504 1
 4336  6502  6503 1
 4337  6506  6507 1
 4338  6505  6506 1
 4339  6509  6510 1
 4340  6508  6509 1
 4341  6512  6513 1
 4342  6511  6512 1
 4343  6515  6516 1
 4344  6514  6515 1
 4345  6518  6519 1
 4346  6517  6518 1
 4347  6521  6522 1
 4348  6520  6521 1
 4349  6524  6525 1
 4350  6523  6524 1
 4351  6527  6528 1
 4352  6526  6527 1
 4353  6530  6531 1
 4354  6529  6530 1
 4355  6533  6534 1
 4356  6532  6533 1
 4357  6536  6537 1
 4358  6535  6536 1
 4359  6539  6540 1
 4360  6538  6539 1
 4361  6542  6543 1
 4362  6541  6542 1
 4363  6545  6546 1
 4364  6544  6545 1
 4365  6548  6549 1
 4366  6547  6548 1
 4367  6551  6552 1
 4368  6550  6551 1
 4369  6554  6555 1
 4370  6553  6554 1
 4371  6557  6558 1
 4372  6556  6557 1
 4373  6560  6561 1
 4374  6559  6560 1
 4375  6563  6564 1
 4376  6562  6563 1
 4377  6566  6567 1
 4378  6565  6566 1
 4379  6569  6570 1
 4380  6568  6569 1
 4381  6572  6573 1
 4382  6571  6572 1
 4383  6575  6576 1
 4384  6574  6575 1
 4385  6578  6579 1
 4386  6577  6578 1
 4387  6581  6582 1
 4388  6580  6581 1
 4389  6584  6585 1
 4390  6583  6584 1
 4391  6587  6588 1
 4392  6586  6587 1
 4393  6590  6591 1
 4394  6589  6590 1
 4395  6593  6594 1
 4396  6592  6593 1
 4397  6596  6597 1
 4398  6595  6596 1
 4399  6599  6600 1
 4400  6598  6599 1
 4401  6602  6603 1
 4402  6601  6602 1
 4403  6605  6606 1
 4404  6604  6605 1
 4405  6608  6609 1
 4406  6607  6608 1
 4407  6611  6612 1
 4408  6610  6611 1
 4409  6614  6615 1
 4410  6613  6614 1
 4411  6617  6618 1
 4412  6616  6617 1
 4413  6620  6621 1
 4414  6619  6620 1
 4415  6623  6624 1
 4416  6622  6623 1
 4417  6626  6627 1
 4418  6625  6626 1
 4419  6629  6630 1
 4420  6628  6629 1
 4421  6632  6633 1
 4422  6631  6632 1
 4423  6635  6636 1
 4424  6634  6635 1
 4425  6638  6639 1
 4426  6637  6638 1
 4427  6641  6642 1
 4428  6640  6641 1
 4429  6644  6645 1
 4430  6643  6644 1
 4431  6647  6648 1
 4432  6646  6647 1
 4433  6650  6651 1
 4434  6649  6650 1
 4435  6653  6654 1
 4436  6652  6653 1
 4437  6656  6657 1
 4438  6655  6656 1
 4439  6659  6660 1
 4440  6658  6659 1
 4441  6662  6663 1
 4442  6661  6662 1
 4443  6665  6666 1
 4444  6664  6665 1
 4445  6668  6669 1
 4446  6667  6668 1
 4447  6671  6672 1
 4448  6670  6671 1
 4449  6674  6675 1
 4450  6673  6674 1
 4451  6677  6678 1
 4452  6676  6677 1
 4453  6680  6681 1
 4454  6679  6680 1
 4455  6683  6684 1
 4456  6682  6683 1
 4457  6686  6687 1
 4458  6685  6686 1
 4459  6689  6690 1
 4460  6688  6689 1
 4461  6692  6693 1
 4462  6691  6692 1
 4463  6695  6696 1
 4464  6694  6695 1
 4465  6698  6699 1
 4466  6697  6698 1
 4467  6701  6702 1
 4468  6700  6701 1
 4469  6704  6705 1
 4470  6703  6704 1
 4471  6707  6708 1
 4472  6706  6707 1
 4473  6710  6711 1
 4474  6709  6710 1
 4475  6713  6714 1
 4476  6712  6713 1
 4477  6716  6717 1
 4478  6715  6716 1
 4479  6719  6720 1
 4480  6718  6719 1
 4481  6722  6723 1
 4482  6721  6722 1
 4483  6725  6726 1
 4484  6724  6725 1
 4485  6728  6729 1
 4486  6727  6728 1
 4487  6731  6732 1
 4488  6730  6731 1
 4489  6734  6735 1
 4490  6733  6734 1
 4491  6737  6738 1
 4492  6736  6737 1
 4493  6740  6741 1
 4494  6739  6740 1
 4495  6743  6744 1
 4496  6742  6743 1
 4497  6746  6747 1
 4498  6745  6746 1
 4499  6749  6750 1
 4500  6748  6749 1
 4501  6752  6753 1
 4502  6751  6752 1
 4503  6755  6756 1
 4504  6754  6755 1
 4505  6758  6759 1
 4506  6757  6758 1
 4507  6761  6762 1
 4508  6760  6761 1
 4509  6764  6765 1
 4510  6763  6764 1
 4511  6767  6768 1
 4512  6766  6767 1
 4513  6770  6771 1
 4514  6769  6770 1
 4515  6773  6774 1
 4516  6772  6773 1
 4517  6776  6777 1
 4518  6775  6776 1
 4519  6779  6780 1
 4520  6778  6779 1
 4521  6782  6783 1
 4522  6781  6782 1
 4523  6785  6786 1
 4524  6784  6785 1
 4525  6788  6789 1
 4526  6787  6788 1
 4527  6791  6792 1
 4528  6790  6791 1
 4529  6794  6795 1
 4530  6793  6794 1
 4531  6797  6798 1
 4532  6796  6797 1
 4533  6800  6801 1
 4534  6799  6800 1
 4535  6803  6804 1
 4536  6802  6803 1
 4537  6806  6807 1
 4538  6805  6806 1
 4539  6809  6810 1
 4540  6808  6809 1
 4541  6812  6813 1
 4542  6811  6812 1
 4543  6815  6816 1
 4544  6814  6815 1
 4545  6818  6819 1
 4546  6817  6818 1
 4547  6821  6822 1
 4548  6820  6821 1
 4549  6824  6825 1
 4550  6823  6824 1
 4551  6827  6828 1
 4552  6826  6827 1
 4553  6830  6831 1
 4554  6829  6830 1
 4555  6833  6834 1
 4556  6832  6833 1
 4557  6836  6837 1
 4558  6835  6836 1
 4559  6839  6840 1
 4560  6838  6839 1
 4561  6842  6843 1
 4562  6841  6842 1
 4563  6845  6846 1
 4564  6844  6845 1
 4565  6848  6849 1
 4566  6847  6848 1
 4567  6851  6852 1
 4568  6850  6851 1
 4569  6854  6855 1
 4570  6853  6854 1
 4571  6857  6858 1
 4572  6856  6857 1
 4573  6860  6861 1
 4574  6859  6860 1
 4575  6863  6864 1
 4576  6862  6863 1
 4577  6866  6867 1
 4578  6865  6866 1
 4579  6869  6870 1
 4580  6868  6869 1
 4581  6872  6873 1
 4582  6871  6872 1
 4583  6875  6876 1
 4584  6874  6875 1
 4585  6878  6879 1
 4586  6877  6878 1
 4587  6881  6882 1
 4588  6880  6881 1
 4589  6884  6885 1
 4590  6883  6884 1
 4591  6887  6888 1
 4592  6886  6887 1
 4593  6890  6891 1
 4594  6889  6890 1
 4595  6893  6894 1
 4596  6892  6893 1
 4597  6896  6897 1
 4598  6895  6896 1
 4599  6899  6900 1
 4600  6898  6899 1
 4601  6902  6903 1
 4602  6901  6902 1
 4603  6905  6906 1
 4604  6904  6905 1
 4605  6908  6909 1
 4606  6907  6908 1
 4607  6911  6912 1
 4608  6910  6911 1
 4609  6914  6915 1
 4610  6913  6914 1
 4611  6917  6918 1
 4612  6916  6917 1
 4613  6920  6921 1
 4614  6919  6920 1
 4615  6923  6924 1
 4616  6922  6923 1
 4617  6926  6927 1
 4618  6925  6926 1
 4619  6929  6930 1
 4620  6928  6929 1
 4621  6932  6933 1
 4622  6931  6932 1
 4623  6935  6936 1
 4624  6934  6935 1
 4625  6938  6939 1
 4626  6937  6938 1
 4627  6941  6942 1
 4628  6940  6941 1
 4629  6944  6945 1
 4630  6943  6944 1
 4631  6947  6948 1
 4632  6946  6947 1
 4633  6950  6951 1
 4634  6949  6950 1
 4635  6953  6954 1
 4636  6952  6953 1
 4637  6956  6957 1
 4638  6955  6956 1
 4639  6959  6960 1
 4640  6958  6959 1
 4641  6962  6963 1
 4642  6961  6962 1
 4643  6965  6966 1
 4644  6964  6965 1
 4645  6968  6969 1
 4646  6967  6968 1
 4647  6971  6972 1
 4648  6970  6971 1
 4649  6974  6975 1
 4650  6973  6974 1
 4651  6977  6978 1
 4652  6976  6977 1
 4653  6980  6981 1
 4654  6979  6980 1
 4655  6983  6984 1
 4656  6982  6983 1
 4657  6986  6987 1
 4658  6985  6986 1
 4659  6989  6990 1
 4660  6988  6989 1
 4661  6992  6993 1
 4662  6991  6992 1
 4663  6995  6996 1
 4664  6994  6995 1
 4665  6998  6999 1
 4666  6997  6998 1
 4667  7001  7002 1
 4668  7000  7001 1
 4669  7004  7005 1
 4670  7003  7004 1
 4671  7007  7008 1
 4672  7006  7007 1
 4673  7010  7011 1
 4674  7009  7010 1
 4675  7013  7014 1
 4676  7012  7013 1
 4677  7016  7017 1
 4678  7015  7016 1
 4679  7019  7020 1
 4680  7018  7019 1
 4681  7022  7023 1
 4682  7021  7022 1
 4683  7025  7026 1
 4684  7024  7025 1
 4685  7028  7029 1
 4686  7027  7028 1
 4687  7031  7032 1
 4688  7030  7031 1
 4689  7034  7035 1
 4690  7033  7034 1
 4691  7037  7038 1
 4692  7036  7037 1
 4693  7040  7041 1
 4694  7039  7040 1
 4695  7043  7044 1
 4696  7042  7043 1
 4697  7046  7047 1
 4698  7045  7046 1
 4699  7049  7050 1
 4700  7048  7049 1
 4701  7052  7053 1
 4702  7051  7052 1
 4703  7055  7056 1
 4704  7054  7055 1
 4705  7058  7059 1
 4706  7057  7058 1
 4707  7061  7062 1
 4708  7060  7061 1
 4709  7064  7065 1
 4710  7063  7064 1
 4711  7067  7068 1
 4712  7066  7067 1
 4713  7070  7071 1
 4714  7069  7070 1
 4715  7073  7074 1
 4716  7072  7073 1
 4717  7076  7077 1
 4718  7075  7076 1
 4719  7079  7080 1
 4720  7078  7079 1
 4721  7082  7083 1
 4722  7081  7082 1
 4723  7085  7086 1
 4724  7084  7085 1
 4725  7088  7089 1
 4726  7087  7088 1
 4727  7091  7092 1
 4728  7090  7091 1
 4729  7094  7095 1
 4730  7093  7094 1
 4731  7097  7098 1
 4732  7096  7097 1
 4733  7100  7101 1
 4734  7099  7100 1
 4735  7103  7104 1
 4736  7102  7103 1
 4737  7106  7107 1
 4738  7105  7106 1
 4739  7109  7110 1
 4740  7108  7109 1
 4741  7112  7113 1
 4742  7111  7112 1
 4743  7115  7116 1
 4744  7114  7115 1
 4745  7118  7119 1
 4746  7117  7118 1
 4747  7121  7122 1
 4748  7120  7121 1
 4749  7124  7125 1
 4750  7123  7124 1
 4751  7127  7128 1
 4752  7126  7127 1
 4753  7130  7131 1
 4754  7129  7130 1
 4755  7133  7134 1
 4756  7132  7133 1
 4757  7136  7137 1
 4758  7135  7136 1
 4759  7139  7140 1
 4760  7138  7139 1
 4761  7142  7143 1
 4762  7141  7142 1
 4763  7145  7146 1
 4764  7144  7145 1
 4765  7148  7149 1
 4766  7147  7148 1
 4767  7151  7152 1
 4768  7150  7151 1
 4769  7154  7155 1
 4770  7153  7154 1
 4771  7157  7158 1
 4772  7156  7157 1
 4773  7160  7161 1
 4774  7159  7160 1
 4775  7163  7164 1
 4776  7162  7163 1
 4777  7166  7167 1
 4778  7165  7166 1
 4779  7169  7170 1
 4780  7168  7169 1
 4781  7172  7173 1
 4782  7171  7172 1
 4783  7175  7176 1
 4784  7174  7175 1
 4785  7178  7179 1
 4786  7177  7178 1
 4787  7181  7182 1
 4788  7180  7181 1
 4789  7184  7185 1
 4790  7183  7184 1
 4791  7187  7188 1
 4792  7186  7187 1
 4793  7190  7191 1
 4794  7189  7190 1
 4795  7193  7194 1
 4796  7192  7193 1
 4797  7196  7197 1
 4798  7195  7196 1
 4799  7199  7200 1
 4800  7198  7199 1
 4801  7202  7203 1
 4802  7201  7202 1
 4803  7205  7206 1
 4804  7204  7205 1
 4805  7208  7209 1
 4806  7207  7208 1
 4807  7211  7212 1
 4808  7210  7211 1
 4809  7214  7215 1
 4810  7213  7214 1
 4811  7217  7218 1
 4812  7216  7217 1
 4813  7220  7221 1
 4814  7219  7220 1
 4815  7223  7224 1
 4816  7222  7223 1
 4817  7226  7227 1
 4818  7225  7226 1
 4819  7229  7230 1
 4820  7228  7229 1
 4821  7232  7233 1
 4822  7231  7232 1
 4823  7235  7236 1
 4824  7234  7235 1
 4825  7238  7239 1
 4826  7237  7238 1
 4827  7241  7242 1
 4828  7240  7241 1
 4829  7244  7245 1
 4830  7243  7244 1
 4831  7247  7248 1
 4832  7246  7247 1
 4833  7250  7251 1
 4834  7249  7250 1
 4835  7253  7254 1
 4836  7252  7253 1
 4837  7256  7257 1
 4838  7255  7256 1
 4839  7259  7260 1
 4840  7258  7259 1
 4841  7262  7263 1
 4842  7261  7262 1
 4843  7265  7266 1
 4844  7264  7265 1
 4845  7268  7269 1
 4846  7267  7268 1
 4847  7271  7272 1
 4848  7270  7271 1
 4849  7274  7275 1
 4850  7273  7274 1
 4851  7277  7278 1
 4852  7276  7277 1
 4853  7280  7281 1
 4854  7279  7280 1
 4855  7283  7284 1
 4856  7282  7283 1
 4857  7286  7287 1
 4858  7285  7286 1
 4859  7289  7290 1
 4860  7288  7289 1
 4861  7292  7293 1
 4862  7291  7292 1
 4863  7295  7296 1
 4864  7294  7295 1
 4865  7298  7299 1
 4866  7297  7298 1
 4867  7301  7302 1
 4868  7300  7301 1
 4869  7304  7305 1
 4870  7303  7304 1
 4871  7307  7308 1
 4872  7306  7307 1
 4873  7310  7311 1
 4874  7309  7310 1
 4875  7313  7314 1
 4876  7312  7313 1
 4877  7316  7317 1
 4878  7315  7316 1
 4879  7319  7320 1
 4880  7318  7319 1
 4881  7322  7323 1
 4882  7321  7322 1
 4883  7325  7326 1
 4884  7324  7325 1
 4885  7328  7329 1
 4886  7327  7328 1
 4887  7331  7332 1
 4888  7330  7331 1
 4889  7334  7335 1
 4890  7333  7334 1
 4891  7337  7338 1
 4892  7336  7337 1
 4893  7340  7341 1
 4894  7339  7340 1
 4895  7343  7344 1
 4896  7342  7343 1
 4897  7346  7347 1
 4898  7345  7346 1
 4899  7349  7350 1
 4900  7348  7349 1
 4901  7352  7353 1
 4902  7351  7352 1
 4903  7355  7356 1
 4904  7354  7355 1
 4905  7358  7359 1
 4906  7357  7358 1
 4907  7361  7362 1
 4908  7360  7361 1
 4909  7364  7365 1
 4910  7363  7364 1
 4911  7367  7368 1
 4912  7366  7367 1
 4913  7370  7371 1
 4914  7369  7370 1
 4915  7373  7374 1
 4916  7372  7373 1
 4917  7376  7377 1
 4918  7375  7376 1
 4919  7379  7380 1
 4920  7378  7379 1
 4921  7382  7383 1
 4922  7381  7382 1
 4923  7385  7386 1
 4924  7384  7385 1
 4925  7388  7389 1
 4926  7387  7388 1
 4927  7391  7392 1
 4928  7390  7391 1
 4929  7394  7395 1
 4930  7393  7394 1
 4931  7397  7398 1
 4932  7396  7397 1
 4933  7400  7401 1
 4934  7399  7400 1
 4935  7403  7404 1
 4936  7402  7403 1
 4937  7406  7407 1
 4938  7405  7406 1
 4939  7409  7410 1
 4940  7408  7409 1
 4941  7412  7413 1
 4942  7411  7412 1
 4943  7415  7416 1
 4944  7414  7415 1
 4945  7418  7419 1
 4946  7417  7418 1
 4947  7421  7422 1
 4948  7420  7421 1
 4949  7424  7425 1
 4950  7423  7424 1
 4951  7427  7428 1
 4952  7426  7427 1
 4953  7430  7431 1
 4954  7429  7430 1
 4955  7433  7434 1
 4956  7432  7433 1
 4957  7436  7437 1
 4958  7435  7436 1
 4959  7439  7440 1
 4960  7438  7439 1
 4961  7442  7443 1
 4962  7441  7442 1
 4963  7445  7446 1
 4964  7444  7445 1
 4965  7448  7449 1
 4966  7447  7448 1
 4967  7451  7452 1
 4968  7450  7451 1
 4969  7454  7455 1
 4970  7453  7454 1
 4971  7457  7458 1
 4972  7456  7457 1
 4973  7460  7461 1
 4974  7459  7460 1
 4975  7463  7464 1
 4976  7462  7463 1
 4977  7466  7467 1
 4978  7465  7466 1
 4979  7469  7470 1
 4980  7468  7469 1
 4981  7472  7473 1
 4982  7471  7472 1
 4983  7475  7476 1
 4984  7474  7475 1
 4985  7478  7479 1
 4986  7477  7478 1
 4987  7481  7482 1
 4988  7480  7481 1
 4989  7484  7485 1
 4990  7483  7484 1
 4991  7487  7488 1
 4992  7486  7487 1
 4993  7490  7491 1
 4994  7489  7490 1
 4995  7493  7494 1
 4996  7492  7493 1
 4997  7496  7497 1
 4998  7495  7496 1
 4999  7499  7500 1
 5000  7498  7499 1
 5001  7502  7503 1
 5002  7501  7502 1
 5003  7505  7506 1
 5004  7504  7505 1
 5005  7508  7509 1
 5006  7507  7508 1
 5007  7511  7512 1
 5008  7510  7511 1
 5009  7514  7515 1
 5010  7513  7514 1
 5011  7517  7518 1
 5012  7516  7517 1
 5013  7520  7521 1
 5014  7519  7520 1
 5015  7523  7524 1
 5016  7522  7523 1
 5017  7526  7527 1
 5018  7525  7526 1
 5019  7529  7530 1
 5020  7528  7529 1
 5021  7532  7533 1
 5022  7531  7532 1
 5023  7535  7536 1
 5024  7534  7535 1
 5025  7538  7539 1
 5026  7537  7538 1
 5027  7541  7542 1
 5028  7540  7541 1
 5029  7544  7545 1
 5030  7543  7544 1
 5031  7547  7548 1
 5032  7546  7547 1
 5033  7550  7551 1
 5034  7549  7550 1
 5035  7553  7554 1
 5036  7552  7553 1
 5037  7556  7557 1
 5038  7555  7556 1
 5039  7559  7560 1
 5040  7558  7559 1
 5041  7562  7563 1
 5042  7561  7562 1
 5043  7565  7566 1
 5044  7564  7565 1
 5045  7568  7569 1
 5046  7567  7568 1
 5047  7571  7572 1
 5048  7570  7571 1
 5049  7574  7575 1
 5050  7573  7574 1
 5051  7577  7578 1
 5052  7576  7577 1
 5053  7580  7581 1
 5054  7579  7580 1
 5055  7583  7584 1
 5056  7582  7583 1
 5057  7586  7587 1
 5058  7585  7586 1
 5059  7589  7590 1
 5060  7588  7589 1
 5061  7592  7593 1
 5062  7591  7592 1
 5063  7595  7596 1
 5064  7594  7595 1
 5065  7598  7599 1
 5066  7597  7598 1
 5067  7601  7602 1
 5068  7600  7601 1
 5069  7604  7605 1
 5070  7603  7604 1
 5071  7607  7608 1
 5072  7606  7607 1
 5073  7610  7611 1
 5074  7609  7610 1
 5075  7613  7614 1
 5076  7612  7613 1
 5077  7616  7617 1
 5078  7615  7616 1
 5079  7619  7620 1
 5080  7618  7619 1
 5081  7622  7623 1
 5082  7621  7622 1
 5083  7625  7626 1
 5084  7624  7625 1
 5085  7628  7629 1
 5086  7627  7628 1
 5087  7631  7632 1
 5088  7630  7631 1
 5089  7634  7635 1
 5090  7633  7634 1
 5091  7637  7638 1
 5092  7636  7637 1
 5093  7640  7641 1
 5094  7639  7640 1
 5095  7643  7644 1
 5096  7642  7643 1
 5097  7646  7647 1
 5098  7645  7646 1
 5099  7649  7650 1
 5100  7648  7649 1
 5101  7652  7653 1
 5102  7651  7652 1
 5103  7655  7656 1
 5104  7654  7655 1
 5105  7658  7659 1
 5106  7657  7658 1
 5107  7661  7662 1
 5108  7660  7661 1
 5109  7664  7665 1
 5110  7663  7664 1
 5111  7667  7668 1
 5112  7666  7667 1
 5113  7670  7671 1
 5114  7669  7670 1
 5115  7673  7674 1
 5116  7672  7673 1
 5117  7676  7677 1
 5118  7675  7676 1
 5119  7679  7680 1
 5120  7678  7679 1
 5121  7682  7683 1
 5122  7681  7682 1
 5123  7685  7686 1
 5124  7684  7685 1
 5125  7688  7689 1
 5126  7687  7688 1
 5127  7691  7692 1
 5128  7690  7691 1
 5129  7694  7695 1
 5130  7693  7694 1
 5131  7697  7698 1
 5132  7696  7697 1
 5133  7700  7701 1
 5134  7699  7700 1
 5135  7703  7704 1
 5136  7702  7703 1
 5137  7706  7707 1
 5138  7705  7706 1
 5139  7709  7710 1
 5140  7708  7709 1
 5141  7712  7713 1
 5142  7711  7712 1
 5143  7715  7716 1
 5144  7714  7715 1
 5145  7718  7719 1
 5146  7717  7718 1
 5147  7721  7722 1
 5148  7720  7721 1
 5149  7724  7725 1
 5150  7723  7724 1
 5151  7727  7728 1
 5152  7726  7727 1
 5153  7730  7731 1
 5154  7729  7730 1
 5155  7733  7734 1
 5156  7732  7733 1
 5157  7736  7737 1
 5158  7735  7736 1
 5159  7739  7740 1
 5160  7738  7739 1
 5161  7742  7743 1
 5162  7741  7742 1
 5163  7745  7746 1
 5164  7744  7745 1
 5165  7748  7749 1
 5166  7747  7748 1
 5167  7751  7752 1
 5168  7750  7751 1
 5169  7754  7755 1
 5170  7753  7754 1
 5171  7757  7758 1
 5172  7756  7757 1
 5173  7760  7761 1
 5174  7759  7760 1
 5175  7763  7764 1
 5176  7762  7763 1
 5177  7766  7767 1
 5178  7765  7766 1
 5179  7769  7770 1
 5180  7768  7769 1
 5181  7772  7773 1
 5182  7771  7772 1
 5183  7775  7776 1
 5184  7774  7775 1
 5185  7778  7779 1
 5186  7777  7778 1
 5187  7781  7782 1
 5188  7780  7781 1
 5189  7784  7785 1
 5190  7783  7784 1
 5191  7787  7788 1
 5192  7786  7787 1
 5193  7790  7791 1
 5194  7789  7790 1
 5195  7793  7794 1
 5196  7792  7793 1
 5197  7796  7797 1
 5198  7795  7796 1
 5199  7799  7800 1
 5200  7798  7799 1
 5201  7802  7803 1
 5202  7801  7802 1
 5203  7805  7806 1
 5204  7804  7805 1
 5205  7808  7809 1
 5206  7807  7808 1
 5207  7811  7812 1
 5208  7810  7811 1
 5209  7814  7815 1
 5210  7813  7814 1
 5211  7817  7818 1
 5212  7816  7817 1
 5213  7820  7821 1
 5214  7819  7820 1
 5215  7823  7824 1
 5216  7822  7823 1
 5217  7826  7827 1
 5218  7825  7826 1
 5219  7829  7830 1
 5220  7828  7829 1
 5221  7832  7833 1
 5222  7831  7832 1
 5223  7835  7836 1
 5224  7834  7835 1
 5225  7838  7839 1
 5226  7837  7838 1
 5227  7841  7842 1
 5228  7840  7841 1
 5229  7844  7845 1
 5230  7843  7844 1
 5231  7847  7848 1
 5232  7846  7847 1
 5233  7850  7851 1
 5234  7849  7850 1
 5235  7853  7854 1
 5236  7852  7853 1
 5237  7856  7857 1
 5238  7855  7856 1
 5239  7859  7860 1
 5240  7858  7859 1
 5241  7862  7863 1
 5242  7861  7862 1
 5243  7865  7866 1
 5244  7864  7865 1
 5245  7868  7869 1
 5246  7867  7868 1
 5247  7871  7872 1
 5248  7870  7871 1
 5249  7874  7875 1
 5250  7873  7874 1
 5251  7877  7878 1
 5252  7876  7877 1
 5253  7880  7881 1
 5254  7879  7880 1
 5255  7883  7884 1
 5256  7882  7883 1
 5257  7886  7887 1
 5258  7885  7886 1
 5259  7889  7890 1
 5260  7888  7889 1
 5261  7892  7893 1
 5262  7891  7892 1
 5263  7895  7896 1
 5264  7894  7895 1
 5265  7898  7899 1
 5266  7897  7898 1
 5267  7901  7902 1
 5268  7900  7901 1
 5269  7904  7905 1
 5270  7903  7904 1
 5271  7907  7908 1
 5272  7906  7907 1
 5273  7910  7911 1
 5274  7909  7910 1
 5275  7913  7914 1
 5276  7912  7913 1
 5277  7916  7917 1
 5278  7915  7916 1
 5279  7919  7920 1
 5280  7918  7919 1
 5281  7922  7923 1
 5282  7921  7922 1
 5283  7925  7926 1
 5284  7924  7925 1
 5285  7928  7929 1
 5286  7927  7928 1
 5287  7931  7932 1
 5288  7930  7931 1
 5289  7934  7935 1
 5290  7933  7934 1
 5291  7937  7938 1
 5292  7936  7937 1
 5293  7940  7941 1
 5294  7939  7940 1
 5295  7943  7944 1
 5296  7942  7943 1
 5297  7946  7947 1
 5298  7945  7946 1
 5299  7949  7950 1
 5300  7948  7949 1
 5301  7952  7953 1
 5302  7951  7952 1
 5303  7955  7956 1
 5304  7954  7955 1
 5305  7958  7959 1
 5306  7957  7958 1
 5307  7961  7962 1
 5308  7960  7961 1
 5309  7964  7965 1
 5310  7963  7964 1
 5311  7967  7968 1
 5312  7966  7967 1
 5313  7970  7971 1
 5314  7969  7970 1
 5315  7973  7974 1
 5316  7972  7973 1
 5317  7976  7977 1
 5318  7975  7976 1
 5319  7979  7980 1
 5320  7978  7979 1
 5321  7982  7983 1
 5322  7981  7982 1
 5323  7985  7986 1
 5324  7984  7985 1
 5325  7988  7989 1
 5326  7987  7988 1
 5327  7991  7992 1
 5328  7990  7991 1
 5329  7994  7995 1
 5330  7993  7994 1
 5331  7997  7998 1
 5332  7996  7997 1
 5333  8000  8001 1
 5334  7999  8000 1
 5335  8003  8004 1
 5336  8002  8003 1
 5337  8006  8007 1
 5338  8005  8006 1
 5339  8009  8010 1
 5340  8008  8009 1
 5341  8012  8013 1
 5342  8011  8012 1
 5343  8015  8016 1
 5344  8014  8015 1
 5345  8018  8019 1
 5346  8017  8018 1
 5347  8021  8022 1
 5348  8020  8021 1
 5349  8024  8025 1
 5350  8023  8024 1
 5351  8027  8028 1
 5352  8026  8027 1
 5353  8030  8031 1
 5354  8029  8030 1
 5355  8033  8034 1
 5356  8032  8033 1
 5357  8036  8037 1
 5358  8035  8036 1
 5359  8039  8040 1
 5360  8038  8039 1
 5361  8042  8043 1
 5362  8041  8042 1
 5363  8045  8046 1
 5364  8044  8045 1
 5365  8048  8049 1
 5366  8047  8048 1
 5367  8051  8052 1
 5368  8050  8051 1
 5369  8054  8055 1
 5370  8053  8054 1
 5371  8057  8058 1
 5372  8056  8057 1
 5373  8060  8061 1
 5374  8059  8060 1
 5375  8063  8064 1
 5376  8062  8063 1
 5377  8066  8067 1
 5378  8065  8066 1
 5379  8069  8070 1
 5380  8068  8069 1
 5381  8072  8073 1
 5382  8071  8072 1
 5383  8075  8076 1
 5384  8074  8075 1
 5385  8078  8079 1
 5386  8077  8078 1
 5387  8081  8082 1
 5388  8080  8081 1
 5389  8084  8085 1
 5390  8083  8084 1
 5391  8087  8088 1
 5392  8086  8087 1
 5393  8090  8091 1
 5394  8089  8090 1
 5395  8093  8094 1
 5396  8092  8093 1
 5397  8096  8097 1
 5398  8095  8096 1
 5399  8099  8100 1
 5400  8098  8099 1
 5401  8102  8103 1
 5402  8101  8102 1
 5403  8105  8106 1
 5404  8104  8105 1
 5405  8108  8109 1
 5406  8107  8108 1
 5407  8111  8112 1
 5408  8110  8111 1
 5409  8114  8115 1
 5410  8113  8114 1
 5411  8117  8118 1
 5412  8116  8117 1
 5413  8120  8121 1
 5414  8119  8120 1
 5415  8123  8124 1
 5416  8122  8123 1
 5417  8126  8127 1
 5418  8125  8126 1
 5419  8129  8130 1
 5420  8128  8129 1
 5421  8132  8133 1
 5422  8131  8132 1
 5423  8135  8136 1
 5424  8134  8135 1
 5425  8138  8139 1
 5426  8137  8138 1
 5427  8141  8142 1
 5428  8140  8141 1
 5429  8144  8145 1
 5430  8143  8144 1
 5431  8147  8148 1
 5432  8146  8147 1
 5433  8150  8151 1
 5434  8149  8150 1
 5435  8153  8154 1
 5436  8152  8153 1
 5437  8156  8157 1
 5438  8155  8156 1
 5439  8159  8160 1
 5440  8158  8159 1
 5441  8162  8163 1
 5442  8161  8162 1
 5443  8165  8166 1
 5444  8164  8165 1
 5445  8168  8169 1
 5446  8167  8168 1
 5447  8171  8172 1
 5448  8170  8171 1
 5449  8174  8175 1
 5450  8173  8174 1
 5451  8177  8178 1
 5452  8176  8177 1
 5453  8180  8181 1
 5454  8179  8180 1
 5455  8183  8184 1
 5456  8182  8183 1
 5457  8186  8187 1
 5458  8185  8186 1
 5459  8189  8190 1
 5460  8188  8189 1
 5461  8192  8193 1
 5462  8191  8192 1
 5463  8195  8196 1
 5464  8194  8195 1
 5465  8198  8199 1
 5466  8197  8198 1
 5467  8201  8202 1
 5468  8200  8201 1
 5469  8204  8205 1
 5470  8203  8204 1
 5471  8207  8208 1
 5472  8206  8207 1
 5473  8210  8211 1
 5474  8209  8210 1
 5475  8213  8214 1
 5476  8212  8213 1
 5477  8216  8217 1
 5478  8215  8216 1
 5479  8219  8220 1
 5480  8218  8219 1
 5481  8222  8223 1
 5482  8221  8222 1
 5483  8225  8226 1
 5484  8224  8225 1
 5485  8228  8229 1
 5486  8227  8228 1
 5487  8231  8232 1
 5488  8230  8231 1
 5489  8234  8235 1
 5490  8233  8234 1
 5491  8237  8238 1
 5492  8236  8237 1
 5493  8240  8241 1
 5494  8239  8240 1
 5495  8243  8244 1
 5496  8242  8243 1
 5497  8246  8247 1
 5498  8245  8246 1
 5499  8249  8250 1
 5500  8248  8249 1
 5501  8252  8253 1
 5502  8251  8252 1
 5503  8255  8256 1
 5504  8254  8255 1
 5505  8258  8259 1
 5506  8257  8258 1
 5507  8261  8262 1
 5508  8260  8261 1
 5509  8264  8265 1
 5510  8263  8264 1
 5511  8267  8268 1
 5512  8266  8267 1
 5513  8270  8271 1
 5514  8269  8270 1
 5515  8273  8274 1
 5516  8272  8273 1
 5517  8276  8277 1
 5518  8275  8276 1
 5519  8279  8280 1
 5520  8278  8279 1
 5521  8282  8283 1
 5522  8281  8282 1
 5523  8285  8286 1
 5524  8284  8285 1
 5525  8288  8289 1
 5526  8287  8288 1
 5527  8291  8292 1
 5528  8290  8291 1
 5529  8294  8295 1
 5530  8293  8294 1
 5531  8297  8298 1
 5532  8296  8297 1
 5533  8300  8301 1
 5534  8299  8300 1
 5535  8303  8304 1
 5536  8302  8303 1
 5537  8306  8307 1
 5538  8305  8306 1
 5539  8309  8310 1
 5540  8308  8309 1
 5541  8312  8313 1
 5542  8311  8312 1
 5543  8315  8316 1
 5544  8314  8315 1
 5545  8318  8319 1
 5546  8317  8318 1
 5547  8321  8322 1
 5548  8320  8321 1
 5549  8324  8325 1
 5550  8323  8324 1
 5551  8327  8328 1
 5552  8326  8327 1
 5553  8330  8331 1
 5554  8329  8330 1
 5555  8333  8334 1
 5556  8332  8333 1
 5557  8336  8337 1
 5558  8335  8336 1
 5559  8339  8340 1
 5560  8338  8339 1
 5561  8342  8343 1
 5562  8341  8342 1
 5563  8345  8346 1
 5564  8344  8345 1
 5565  8348  8349 1
 5566  8347  8348 1
 5567  8351  8352 1
 5568  8350  8351 1
 5569  8354  8355 1
 5570  8353  8354 1
 5571  8357  8358 1
 5572  8356  8357 1
 5573  8360  8361 1
 5574  8359  8360 1
 5575  8363  8364 1
 5576  8362  8363 1
 5577  8366  8367 1
 5578  8365  8366 1
 5579  8369  8370 1
 5580  8368  8369 1
 5581  8372  8373 1
 5582  8371  8372 1
 5583  8375  8376 1
 5584  8374  8375 1
 5585  8378  8379 1
 5586  8377  8378 1
 5587  8381  8382 1
 5588  8380  8381 1
 5589  8384  8385 1
 5590  8383  8384 1
 5591  8387  8388 1
 5592  8386  8387 1
 5593  8390  8391 1
 5594  8389  8390 1
 5595  8393  8394 1
 5596  8392  8393 1
 5597  8396  8397 1
 5598  8395  8396 1
 5599  8399  8400 1
 5600  8398  8399 1
 5601  8402  8403 1
 5602  8401  8402 1
 5603  8405  8406 1
 5604  8404  8405 1
 5605  8408  8409 1
 5606  8407  8408 1
 5607  8411  8412 1
 5608  8410  8411 1
 5609  8414  8415 1
 5610  8413  8414 1
 5611  8417  8418 1
 5612  8416  8417 1
 5613  8420  8421 1
 5614  8419  8420 1
 5615  8423  8424 1
 5616  8422  8423 1
 5617  8426  8427 1
 5618  8425  8426 1
 5619  8429  8430 1
 5620  8428  8429 1
 5621  8432  8433 1
 5622  8431  8432 1
 5623  8435  8436 1
 5624  8434  8435 1
 5625  8438  8439 1
 5626  8437  8438 1
 5627  8441  8442 1
 5628  8440  8441 1
 5629  8444  8445 1
 5630  8443  8444 1
 5631  8447  8448 1
 5632  8446  8447 1
 5633  8450  8451 1
 5634  8449  8450 1
 5635  8453  8454 1
 5636  8452  8453 1
 5637  8456  8457 1
 5638  8455  8456 1
 5639  8459  8460 1
 5640  8458  8459 1
 5641  8462  8463 1
 5642  8461  8462 1
 5643  8465  8466 1
 5644  8464  8465 1
 5645  8468  8469 1
 5646  8467  8468 1
 5647  8471  8472 1
 5648  8470  8471 1
 5649  8474  8475 1
 5650  8473  8474 1
 5651  8477  8478 1
 5652  8476  8477 1
 5653  8480  8481 1
 5654  8479  8480 1
 5655  8483  8484 1
 5656  8482  8483 1
 5657  8486  8487 1
 5658  8485  8486 1
 5659  8489  8490 1
 5660  8488  8489 1
 5661  8492  8493 1
 5662  8491  8492 1
 5663  8495  8496 1
 5664  8494  8495 1
 5665  8498  8499 1
 5666  8497  8498 1
 5667  8501  8502 1
 5668  8500  8501 1
 5669  8504  8505 1
 5670  8503  8504 1
 5671  8507  8508 1
 5672  8506  8507 1
 5673  8510  8511 1
 5674  8509  8510 1
 5675  8513  8514 1
 5676  8512  8513 1
 5677  8516  8517 1
 5678  8515  8516 1
 5679  8519  8520 1
 5680  8518  8519 1
 5681  8522  8523 1
 5682  8521  8522 1
 5683  8525  8526 1
 5684  8524  8525 1
 5685  8528  8529 1
 5686  8527  8528 1
 5687  8531  8532 1
 5688  8530  8531 1
 5689  8534  8535 1
 5690  8533  8534 1
 5691  8537  8538 1
 5692  8536  8537 1
 5693  8540  8541 1
 5694  8539  8540 1
 5695  8543  8544 1
 5696  8542  8543 1
 5697  8546  8547 1
 5698  8545  8546 1
 5699  8549  8550 1
 5700  8548  8549 1
 5701  8552  8553 1
 5702  8551  8552 1
 5703  8555  8556 1
 5704  8554  8555 1
 5705  8558  8559 1
 5706  8557  8558 1
 5707  8561  8562 1
 5708  8560  8561 1
 5709  8564  8565 1
 5710  8563  8564 1
 5711  8567  8568 1
 5712  8566  8567 1
 5713  8570  8571 1
 5714  8569  8570 1
 5715  8573  8574 1
 5716  8572  8573 1
 5717  8576  8577 1
 5718  8575  8576 1
 5719  8579  8580 1
 5720  8578  8579 1
 5721  8582  8583 1
 5722  8581  8582 1
 5723  8585  8586 1
 5724  8584  8585 1
 5725  8588  8589 1
 5726  8587  8588 1
 5727  8591  8592 1
 5728  8590  8591 1
 5729  8594  8595 1
 5730  8593  8594 1
 5731  8597  8598 1
 5732  8596  8597 1
 5733  8600  8601 1
 5734  8599  8600 1
 5735  8603  8604 1
 5736  8602  8603 1
 5737  8606  8607 1
 5738  8605  8606 1
 5739  8609  8610 1
 5740  8608  8609 1
 5741  8612  8613 1
 5742  8611  8612 1
 5743  8615  8616 1
 5744  8614  8615 1
 5745  8618  8619 1
 5746  8617  8618 1
 5747  8621  8622 1
 5748  8620  8621 1
 5749  8624  8625 1
 5750  8623  8624 1
 5751  8627  8628 1
 5752  8626  8627 1
 5753  8630  8631 1
 5754  8629  8630 1
 5755  8633  8634 1
 5756  8632  8633 1
 5757  8636  8637 1
 5758  8635  8636 1
 5759  8639  8640 1
 5760  8638  8639 1
 5761  8642  8643 1
 5762  8641  8642 1
 5763  8645  8646 1
 5764  8644  8645 1
 5765  8648  8649 1
 5766  8647  8648 1
 5767  8651  8652 1
 5768  8650  8651 1
 5769  8654  8655 1
 5770  8653  8654 1
 5771  8657  8658 1
 5772  8656  8657 1
 5773  8660  8661 1
 5774  8659  8660 1
 5775  8663  8664 1
 5776  8662  8663 1
 5777  8666  8667 1
 5778  8665  8666 1
 5779  8669  8670 1
 5780  8668  8669 1
 5781  8672  8673 1
 5782  8671  8672 1
 5783  8675  8676 1
 5784  8674  8675 1
 5785  8678  8679 1
 5786  8677  8678 1
 5787  8681  8682 1
 5788  8680  8681 1
 5789  8684  8685 1
 5790  8683  8684 1
 5791  8687  8688 1
 5792  8686  8687 1
 5793  8690  8691 1
 5794  8689  8690 1
 5795  8693  8694 1
 5796  8692  8693 1
 5797  8696  8697 1
 5798  8695  8696 1
 5799  8699  8700 1
 5800  8698  8699 1
 5801  8702  8703 1
 5802  8701  8702 1
 5803  8705  8706 1
 5804  8704  8705 1
 5805  8708  8709 1
 5806  8707  8708 1
 5807  8711  8712 1
 5808  8710  8711 1
 5809  8714  8715 1
 5810  8713  8714 1
 5811  8717  8718 1
 5812  8716  8717 1
 5813  8720  8721 1
 5814  8719  8720 1
 5815  8723  8724 1
 5816  8722  8723 1
 5817  8726  8727 1
 5818  8725  8726 1
 5819  8729  8730 1
 5820  8728  8729 1
 5821  8732  8733 1
 5822  8731  8732 1
 5823  8735  8736 1
 5824  8734  8735 1
 5825  8738  8739 1
 5826  8737  8738 1
 5827  8741  8742 1
 5828  8740  8741 1
 5829  8744  8745 1
 5830  8743  8744 1
 5831  8747  8748 1
 5832  8746  8747 1
 5833  8750  8751 1
 5834  8749  8750 1
 5835  8753  8754 1
 5836  8752  8753 1
 5837  8756  8757 1
 5838  8755  8756 1
 5839  8759  8760 1
 5840  8758  8759 1
 5841  8762  8763 1
 5842  8761  8762 1
 5843  8765  8766 1
 5844  8764  8765 1
 5845  8768  8769 1
 5846  8767  8768 1
 5847  8771  8772 1
 5848  8770  8771 1
 5849  8774  8775 1
 5850  8773  8774 1
 5851  8777  8778 1
 5852  8776  8777 1
 5853  8780  8781 1
 5854  8779  8780 1
 5855  8783  8784 1
 5856  8782  8783 1
 5857  8786  8787 1
 5858  8785  8786 1
 5859  8789  8790 1
 5860  8788  8789 1
 5861  8792  8793 1
 5862  8791  8792 1
 5863  8795  8796 1
 5864  8794  8795 1
 5865  8798  8799 1
 5866  8797  8798 1
 5867  8801  8802 1
 5868  8800  8801 1
 5869  8804  8805 1
 5870  8803  8804 1
 5871  8807  8808 1
 5872  8806  8807 1
 5873  8810  8811 1
 5874  8809  8810 1
 5875  8813  8814 1
 5876  8812  8813 1
 5877  8816  8817 1
 5878  8815  8816 1
 5879  8819  8820 1
 5880  8818  8819 1
 5881  8822  8823 1
 5882  8821  8822 1
 5883  8825  8826 1
 5884  8824  8825 1
 5885  8828  8829 1
 5886  8827  8828 1
 5887  8831  8832 1
 5888  8830  8831 1
 5889  8834  8835 1
 5890  8833  8834 1
 5891  8837  8838 1
 5892  8836  8837 1
 5893  8840  8841 1
 5894  8839  8840 1
 5895  8843  8844 1
 5896  8842  8843 1
 5897  8846  8847 1
 5898  8845  8846 1
 5899  8849  8850 1
 5900  8848  8849 1
 5901  8852  8853 1
 5902  8851  8852 1
 5903  8855  8856 1
 5904  8854  8855 1
 5905  8858  8859 1
 5906  8857  8858 1
 5907  8861  8862 1
 5908  8860  8861 1
 5909  8864  8865 1
 5910  8863  8864 1
 5911  8867  8868 1
 5912  8866  8867 1
 5913  8870  8871 1
 5914  8869  8870 1
 5915  8873  8874 1
 5916  8872  8873 1
 5917  8876  8877 1
 5918  8875  8876 1
 5919  8879  8880 1
 5920  8878  8879 1
 5921  8882  8883 1
 5922  8881  8882 1
 5923  8885  8886 1
 5924  8884  8885 1
 5925  8888  8889 1
 5926  8887  8888 1
 5927  8891  8892 1
 5928  8890  8891 1
 5929  8894  8895 1
 5930  8893  8894 1
 5931  8897  8898 1
 5932  8896  8897 1
 5933  8900  8901 1
 5934  8899  8900 1
 5935  8903  8904 1
 5936  8902  8903 1
 5937  8906  8907 1
 5938  8905  8906 1
 5939  8909  8910 1
 5940  8908  8909 1
 5941  8912  8913 1
 5942  8911  8912 1
 5943  8915  8916 1
 5944  8914  8915 1
 5945  8918  8919 1
 5946  8917  8918 1
 5947  8921  8922 1
 5948  8920  8921 1
 5949  8924  8925 1
 5950  8923  8924 1
 5951  8927  8928 1
 5952  8926  8927 1
 5953  8930  8931 1
 5954  8929  8930 1
 5955  8933  8934 1
 5956  8932  8933 1
 5957  8936  8937 1
 5958  8935  8936 1
 5959  8939  8940 1
 5960  8938  8939 1
 5961  8942  8943 1
 5962  8941  8942 1
 5963  8945  8946 1
 5964  8944  8945 1
 5965  8948  8949 1
 5966  8947  8948 1
 5967  8951  8952 1
 5968  8950  8951 1
 5969  8954  8955 1
 5970  8953  8954 1
 5971  8957  8958 1
 5972  8956  8957 1
 5973  8960  8961 1
 5974  8959  8960 1
 5975  8963  8964 1
 5976  8962  8963 1
 5977  8966  8967 1
 5978  8965  8966 1
 5979  8969  8970 1
 5980  8968  8969 1
 5981  8972  8973 1
 5982  8971  8972 1
 5983  8975  8976 1
 5984  8974  8975 1
 5985  8978  8979 1
 5986  8977  8978 1
 5987  8981  8982 1
 5988  8980  8981 1
 5989  8984  8985 1
 5990  8983  8984 1
 5991  8987  8988 1
 5992  8986  8987 1
 5993  8990  8991 1
 5994  8989  8990 1
 5995  8993  8994 1
 5996  8992  8993 1
 5997  8996  8997 1
 5998  8995  8996 1
 5999  8999  9000 1
 6000  8998  8999 1
 6001  9002  9003 1
 6002  9001  9002 1
 6003  9005  9006 1
 6004  9004  9005 1
 6005  9008  9009 1
 6006  9007  9008 1
 6007  9011  9012 1
 6008  9010  9011 1
 6009  9014  9015 1
 6010  9013  9014 1
 6011  9017  9018 1
 6012  9016  9017 1
 6013  9020  9021 1
 6014  9019  9020 1
 6015  9023  9024 1
 6016  9022  9023 1
 6017  9026  9027 1
 6018  9025  9026 1
 6019  9029  9030 1
 6020  9028  9029 1
 6021  9032  9033 1
 6022  9031  9032 1
 6023  9035  9036 1
 6024  9034  9035 1
 6025  9038  9039 1
 6026  9037  9038 1
 6027  9041  9042 1
 6028  9040  9041 1
 6029  9044  9045 1
 6030  9043  9044 1
 6031  9047  9048 1
 6032  9046  9047 1
 6033  9050  9051 1
 6034  9049  9050 1
 6035  9053  9054 1
 6036  9052  9053 1
 6037  9056  9057 1
 6038  9055  9056 1
 6039  9059  9060 1
 6040  9058  9059 1
 6041  9062  9063 1
 6042  9061  9062 1
 6043  9065  9066 1
 6044  9064  9065 1
 6045  9068  9069 1
 6046  9067  9068 1
 6047  9071  9072 1
 6048  9070  9071 1
 6049  9074  9075 1
 6050  9073  9074 1
 6051  9077  9078 1
 6052  9076  9077 1
 6053  9080  9081 1
 6054  9079  9080 1
 6055  9083  9084 1
 6056  9082  9083 1
 6057  9086  9087 1
 6058  9085  9086 1
 6059  9089  9090 1
 6060  9088  9089 1
 6061  9092  9093 1
 6062  9091  9092 1
 6063  9095  9096 1
 6064  9094  9095 1
 6065  9098  9099 1
 6066  9097  9098 1
 6067  9101  9102 1
 6068  9100  9101 1
 6069  9104  9105 1
 6070  9103  9104 1
 6071  9107  9108 1
 6072  9106  9107 1
 6073  9110  9111 1
 6074  9109  9110 1
 6075  9113  9114 1
 6076  9112  9113 1
 6077  9116  9117 1
 6078  9115  9116 1
 6079  9119  9120 1
 6080  9118  9119 1
 6081  9122  9123 1
 6082  9121  9122 1
 6083  9125  9126 1
 6084  9124  9125 1
 6085  9128  9129 1
 6086  9127  9128 1
 6087  9131  9132 1
 6088  9130  9131 1
 6089  9134  9135 1
 6090  9133  9134 1
 6091  9137  9138 1
 6092  9136  9137 1
 6093  9140  9141 1
 6094  9139  9140 1
 6095  9143  9144 1
 6096  9142  9143 1
 6097  9146  9147 1
 6098  9145  9146 1
 6099  9149  9150 1
 6100  9148  9149 1
 6101  9152  9153 1
 6102  9151  9152 1
 6103  9155  9156 1
 6104  9154  9155 1
 6105  9158  9159 1
 6106  9157  9158 1
 6107  9161  9162 1
 6108  9160  9161 1
 6109  9164  9165 1
 6110  9163  9164 1
 6111  9167  9168 1
 6112  9166  9167 1
 6113  9170  9171 1
 6114  9169  9170 1
 6115  9173  9174 1
 6116  9172  9173 1
 6117  9176  9177 1
 6118  9175  9176 1
 6119  9179  9180 1
 6120  9178  9179 1
 6121  9182  9183 1
 6122  9181  9182 1
 6123  9185  9186 1
 6124  9184  9185 1
 6125  9188  9189 1
 6126  9187  9188 1
 6127  9191  9192 1
 6128  9190  9191 1
 6129  9194  9195 1
 6130  9193  9194 1
 6131  9197  9198 1
 6132  9196  9197 1
 6133  9200  9201 1
 6134  9199  9200 1
 6135  9203  9204 1
 6136  9202  9203 1
 6137  9206  9207 1
 6138  9205  9206 1
 6139  9209  9210 1
 6140  9208  9209 1
 6141  9212  9213 1
 6142  9211  9212 1
 6143  9215  9216 1
 6144  9214  9215 1
 6145  9218  9219 1
 6146  9217  9218 1
 6147  9221  9222 1
 6148  9220  9221 1
 6149  9224  9225 1
 6150  9223  9224 1
 6151  9227  9228 1
 6152  9226  9227 1
 6153  9230  9231 1
 6154  9229  9230 1
 6155  9233  9234 1
 6156  9232  9233 1
 6157  9236  9237 1
 6158  9235  9236 1
 6159  9239  9240 1
 6160  9238  9239 1
 6161  9242  9243 1
 6162  9241  9242 1
 6163  9245  9246 1
 6164  9244  9245 1
 6165  9248  9249 1
 6166  9247  9248 1
 6167  9251  9252 1
 6168  9250  9251 1
 6169  9254  9255 1
 6170  9253  9254 1
 6171  9257  9258 1
 6172  9256  9257 1
 6173  9260  9261 1
 6174  9259  9260 1
 6175  9263  9264 1
 6176  9262  9263 1
 6177  9266  9267 1
 6178  9265  9266 1
 6179  9269  9270 1
 6180  9268  9269 1
 6181  9272  9273 1
 6182  9271  9272 1
 6183  9275  9276 1
 6184  9274  9275 1
 6185  9278  9279 1
 6186  9277  9278 1
 6187  9281  9282 1
 6188  9280  9281 1
 6189  9284  9285 1
 6190  9283  9284 1
 6191  9287  9288 1
 6192  9286  9287 1
 6193  9290  9291 1
 6194  9289  9290 1
 6195  9293  9294 1
 6196  9292  9293 1
 6197  9296  9297 1
 6198  9295  9296 1
 6199  9299  9300 1
 6200  9298  9299 1
 6201  9302  9303 1
 6202  9301  9302 1
 6203  9305  9306 1
 6204  9304  9305 1
 6205  9308  9309 1
 6206  9307  9308 1
 6207  9311  9312 1
 6208  9310  9311 1
 6209  9314  9315 1
 6210  9313  9314 1
 6211  9317  9318 1
 6212  9316  9317 1
 6213  9320  9321 1
 6214  9319  9320 1
 6215  9323  9324 1
 6216  9322  9323 1
 6217  9326  9327 1
 6218  9325  9326 1
 6219  9329  9330 1
 6220  9328  9329 1
 6221  9332  9333 1
 6222  9331  9332 1
 6223  9335  9336 1
 6224  9334  9335 1
 6225  9338  9339 1
 6226  9337  9338 1
 6227  9341  9342 1
 6228  9340  9341 1
 6229  9344  9345 1
 6230  9343  9344 1
 6231  9347  9348 1
 6232  9346  9347 1
 6233  9350  9351 1
 6234  9349  9350 1
 6235  9353  9354 1
 6236  9352  9353 1
 6237  9356  9357 1
 6238  9355  9356 1
 6239  9359  9360 1
 6240  9358  9359 1
 6241  9362  9363 1
 6242  9361  9362 1
 6243  9365  9366 1
 6244  9364  9365 1
 6245  9368  9369 1
 6246  9367  9368 1
 6247  9371  9372 1
 6248  9370  9371 1
 6249  9374  9375 1
 6250  9373  9374 1
 6251  9377  9378 1
 6252  9376  9377 1
 6253  9380  9381 1
 6254  9379  9380 1
 6255  9383  9384 1
 6256  9382  9383 1
 6257  9386  9387 1
 6258  9385  9386 1
 6259  9389  9390 1
 6260  9388  9389 1
 6261  9392  9393 1
 6262  9391  9392 1
 6263  9395  9396 1
 6264  9394  9395 1
 6265  9398  9399 1
 6266  9397  9398 1
 6267  9401  9402 1
 6268  9400  9401 1
 6269  9404  9405 1
 6270  9403  9404 1
 6271  9407  9408 1
 6272  9406  9407 1
 6273  9410  9411 1
 6274  9409  9410 1
 6275  9413  9414 1
 6276  9412  9413 1
 6277  9416  9417 1
 6278  9415  9416 1
 6279  9419  9420 1
 6280  9418  9419 1
 6281  9422  9423 1
 6282  9421  9422 1
 6283  9425  9426 1
 6284  9424  9425 1
 6285  9428  9429 1
 6286  9427  9428 1
 6287  9431  9432 1
 6288  9430  9431 1
 6289  9434  9435 1
 6290  9433  9434 1
 6291  9437  9438 1
 6292  9436  9437 1
 6293  9440  9441 1
 6294  9439  9440 1
 6295  9443  9444 1
 6296  9442  9443 1
 6297  9446  9447 1
 6298  9445  9446 1
 6299  9449  9450 1
 6300  9448  9449 1
 6301  9452  9453 1
 6302  9451  9452 1
 6303  9455  9456 1
 6304  9454  9455 1
 6305  9458  9459 1
 6306  9457  9458 1
 6307  9461  9462 1
 6308  9460  9461 1
 6309  9464  9465 1
 6310  9463  9464 1
 6311  9467  9468 1
 6312  9466  9467 1
 6313  9470  9471 1
 6314  9469  9470 1
 6315  9473  9474 1
 6316  9472  9473 1
 6317  9476  9477 1
 6318  9475  9476 1
 6319  9479  9480 1
 6320  9478  9479 1
 6321  9482  9483 1
 6322  9481  9482 1
 6323  9485  9486 1
 6324  9484  9485 1
 6325  9488  9489 1
 6326  9487  9488 1
 6327  9491  9492 1
 6328  9490  9491 1
 6329  9494  9495 1
 6330  9493  9494 1
 6331  9497  9498 1
 6332  9496  9497 1
 6333  9500  9501 1
 6334  9499  9500 1
 6335  9503  9504 1
 6336  9502  9503 1
 6337  9506  9507 1
 6338  9505  9506 1
 6339  9509  9510 1
 6340  9508  9509 1
 6341  9512  9513 1
 6342  9511  9512 1
 6343  9515  9516 1
 6344  9514  9515 1
 6345  9518  9519 1
 6346  9517  9518 1
 6347  9521  9522 1
 6348  9520  9521 1
 6349  9524  9525 1
 6350  9523  9524 1
 6351  9527  9528 1
 6352  9526  9527 1
 6353  9530  9531 1
 6354  9529  9530 1
 6355  9533  9534 1
 6356  9532  9533 1
 6357  9536  9537 1
 6358  9535  9536 1
 6359  9539  9540 1
 6360  9538  9539 1
 6361  9542  9543 1
 6362  9541  9542 1
 6363  9545  9546 1
 6364  9544  9545 1
 6365  9548  9549 1
 6366  9547  9548 1
 6367  9551  9552 1
 6368  9550  9551 1
 6369  9554  9555 1
 6370  9553  9554 1
 6371  9557  9558 1
 6372  9556  9557 1
 6373  9560  9561 1
 6374  9559  9560 1
 6375  9563  9564 1
 6376  9562  9563 1
 6377  9566  9567 1
 6378  9565  9566 1
 6379  9569  9570 1
 6380  9568  9569 1
 6381  9572  9573 1
 6382  9571  9572 1
 6383  9575  9576 1
 6384  9574  9575 1
 6385  9578  9579 1
 6386  9577  9578 1
 6387  9581  9582 1
 6388  9580  9581 1
 6389  9584  9585 1
 6390  9583  9584 1
 6391  9587  9588 1
 6392  9586  9587 1
 6393  9590  9591 1
 6394  9589  9590 1
 6395  9593  9594 1
 6396  9592  9593 1
 6397  9596  9597 1
 6398  9595  9596 1
 6399  9599  9600 1
 6400  9598  9599 1
 6401  9602  9603 1
 6402  9601  9602 1
 6403  9605  9606 1
 6404  9604  9605 1
 6405  9608  9609 1
 6406  9607  9608 1
 6407  9611  9612 1
 6408  9610  9611 1
 6409  9614  9615 1
 6410  9613  9614 1
 6411  9617  9618 1
 6412  9616  9617 1
 6413  9620  9621 1
 6414  9619  9620 1
 6415  9623  9624 1
 6416  9622  9623 1
 6417  9626  9627 1
 6418  9625  9626 1
 6419  9629  9630 1
 6420  9628  9629 1
 6421  9632  9633 1
 6422  9631  9632 1
 6423  9635  9636 1
 6424  9634  9635 1
 6425  9638  9639 1
 6426  9637  9638 1
 6427  9641  9642 1
 6428  9640  9641 1
 6429  9644  9645 1
 6430  9643  9644 1
 6431  9647  9648 1
 6432  9646  9647 1
 6433  9650  9651 1
 6434  9649  9650 1
 6435  9653  9654 1
 6436  9652  9653 1
 6437  9656  9657 1
 6438  9655  9656 1
 6439  9659  9660 1
 6440  9658  9659 1
 6441  9662  9663 1
 6442  9661  9662 1
 6443  9665  9666 1
 6444  9664  9665 1
 6445  9668  9669 1
 6446  9667  9668 1
 6447  9671  9672 1
 6448  9670  9671 1
 6449  9674  9675 1
 6450  9673  9674 1
 6451  9677  9678 1
 6452  9676  9677 1
 6453  9680  9681 1
 6454  9679  9680 1
 6455  9683  9684 1
 6456  9682  9683 1
 6457  9686  9687 1
 6458  9685  9686 1
 6459  9689  9690 1
 6460  9688  9689 1
 6461  9692  9693 1
 6462  9691  9692 1
 6463  9695  9696 1
 6464  9694  9695 1
 6465  9698  9699 1
 6466  9697  9698 1
 6467  9701  9702 1
 6468  9700  9701 1
 6469  9704  9705 1
 6470  9703  9704 1
 6471  9707  9708 1
 6472  9706  9707 1
 6473  9710  9711 1
 6474  9709  9710 1
 6475  9713  9714 1
 6476  9712  9713 1
 6477  9716  9717 1
 6478  9715  9716 1
 6479  9719  9720 1
 6480  9718  9719 1
 6481  9722  9723 1
 6482  9721  9722 1
 6483  9725  9726 1
 6484  9724  9725 1
 6485  9728  9729 1
 6486  9727  9728 1
 6487  9731  9732 1
 6488  9730  9731 1
 6489  9734  9735 1
 6490  9733  9734 1
 6491  9737  9738 1
 6492  9736  9737 1
 6493  9740  9741 1
 6494  9739  9740 1
 6495  9743  9744 1
 6496  9742  9743 1
 6497  9746  9747 1
 6498  9745  9746 1
 6499  9749  9750 1
 6500  9748  9749 1
 6501  9752  9753 1
 6502  9751  9752 1
 6503  9755  9756 1
 6504  9754  9755 1
 6505  9758  9759 1
 6506  9757  9758 1
 6507  9761  9762 1
 6508  9760  9761 1
 6509  9764  9765 1
 6510  9763  9764 1
 6511  9767  9768 1
 6512  9766  9767 1
 6513  9770  9771 1
 6514  9769  9770 1
 6515  9773  9774 1
 6516  9772  9773 1
 6517  9776  9777 1
 6518  9775  9776 1
 6519  9779  9780 1
 6520  9778  9779 1
 6521  9782  9783 1
 6522  9781  9782 1
 6523  9785  9786 1
 6524  9784  9785 1
 6525  9788  9789 1
 6526  9787  9788 1
 6527  9791  9792 1
 6528  9790  9791 1
 6529  9794  9795 1
 6530  9793  9794 1
 6531  9797  9798 1
 6532  9796  9797 1
 6533  9800  9801 1
 6534  9799  9800 1
 6535  9803  9804 1
 6536  9802  9803 1
 6537  9806  9807 1
 6538  9805  9806 1
 6539  9809  9810 1
 6540  9808  9809 1
 6541  9812  9813 1
 6542  9811  9812 1
 6543  9815  9816 1
 6544  9814  9815 1
 6545  9818  9819 1
 6546  9817  9818 1
 6547  9821  9822 1
 6548  9820  9821 1
 6549  9824  9825 1
 6550  9823  9824 1
 6551  9827  9828 1
 6552  9826  9827 1
 6553  9830  9831 1
 6554  9829  9830 1
 6555  9833  9834 1
 6556  9832  9833 1
 6557  9836  9837 1
 6558  9835  9836 1
 6559  9839  9840 1
 6560  9838  9839 1
 6561  9842  9843 1
 6562  9841  9842 1
 6563  9845  9846 1
 6564  9844  9845 1
 6565  9848  9849 1
 6566  9847  9848 1
 6567  9851  9852 1
 6568  9850  9851 1
 6569  9854  9855 1
 6570  9853  9854 1
 6571  9857  9858 1
 6572  9856  9857 1
 6573  9860  9861 1
 6574  9859  9860 1
 6575  9863  9864 1
 6576  9862  9863 1
 6577  9866  9867 1
 6578  9865  9866 1
 6579  9869  9870 1
 6580  9868  9869 1
 6581  9872  9873 1
 6582  9871  9872 1
 6583  9875  9876 1
 6584  9874  9875 1
 6585  9878  9879 1
 6586  9877  9878 1
 6587  9881  9882 1
 6588  9880  9881 1
 6589  9884  9885 1
 6590  9883  9884 1
 6591  9887  9888 1
 6592  9886  9887 1
 6593  9890  9891 1
 6594  9889  9890 1
 6595  9893  9894 1
 6596  9892  9893 1
 6597  9896  9897 1
 6598  9895  9896 1
 6599  9899  9900 1
 6600  9898  9899 1
 6601  9902  9903 1
 6602  9901  9902 1
 6603  9905  9906 1
 6604  9904  9905 1
 6605  9908  9909 1
 6606  9907  9908 1
 6607  9911  9912 1
 6608  9910  9911 1
 6609  9914  9915 1
 6610  9913  9914 1
 6611  9917  9918 1
 6612  9916  9917 1
 6613  9920  9921 1
 6614  9919  9920 1
 6615  9923  9924 1
 6616  9922  9923 1
 6617  9926  9927 1
 6618  9925  9926 1
 6619  9929  9930 1
 6620  9928  9929 1
 6621  9932  9933 1
 6622  9931  9932 1
 6623  9935  9936 1
 6624  9934  9935 1
 6625  9938  9939 1
 6626  9937  9938 1
 6627  9941  9942 1
 6628  9940  9941 1
 6629  9944  9945 1
 6630  9943  9944 1
 6631  9947  9948 1
 6632  9946  9947 1
 6633  9950  9951 1
 6634  9949  9950 1
 6635  9953  9954 1
 6636  9952  9953 1
 6637  9956  9957 1
 6638  9955  9956 1
 6639  9959  9960 1
 6640  9958  9959 1
 6641  9962  9963 1
 6642  9961  9962 1
 6643  9965  9966 1
 6644  9964  9965 1
 6645  9968  9969 1
 6646  9967  9968 1
 6647  9971  9972 1
 6648  9970  9971 1
 6649  9974  9975 1
 6650  9973  9974 1
 6651  9977  9978 1
 6652  9976  9977 1
 6653  9980  9981 1
 6654  9979  9980 1
 6655  9983  9984 1
 6656  9982  9983 1
 6657  9986  9987 1
 6658  9985  9986 1
 6659  9989  9990 1
 6660  9988  9989 1
 6661  9992  9993 1
 6662  9991  9992 1
 6663  9995  9996 1
 6664  9994  9995 1
 6665  9998  9999 1
 6666  9997  9998 1
 6667 10001 10002 1
 6668 10000 10001 1
 6669 10004 10005 1
 6670 10003 10004 1
 6671 10007 10008 1
 6672 10006 10007 1
 6673 10010 10011 1
 6674 10009 10010 1
 6675 10013 10014 1
 6676 10012 10013 1
 6677 10016 10017 1
 6678 10015 10016 1
 6679 10019 10020 1
 6680 10018 10019 1
 6681 10022 10023 1
 6682 10021 10022 1
 6683 10025 10026 1
 6684 10024 10025 1
 6685 10028 10029 1
 6686 10027 10028 1
 6687 10031 10032 1
 6688 10030 10031 1
 6689 10034 10035 1
 6690 10033 10034 1
 6691 10037 10038 1
 6692 10036 10037 1
 6693 10040 10041 1
 6694 10039 10040 1
 6695 10043 10044 1
 6696 10042 10043 1
 6697 10046 10047 1
 6698 10045 10046 1
 6699 10049 10050 1
 6700 10048 10049 1
 6701 10052 10053 1
 6702 10051 10052 1
 6703 10055 10056 1
 6704 10054 10055 1
 6705 10058 10059 1
 6706 10057 10058 1
 6707 10061 10062 1
 6708 10060 10061 1
 6709 10064 10065 1
 6710 10063 10064 1
 6711 10067 10068 1
 6712 10066 10067 1
 6713 10070 10071 1
 6714 10069 10070 1
 6715 10073 10074 1
 6716 10072 10073 1
 6717 10076 10077 1
 6718 10075 10076 1
 6719 10079 10080 1
 6720 10078 10079 1
 6721 10082 10083 1
 6722 10081 10082 1
 6723 10085 10086 1
 6724 10084 10085 1
 6725 10088 10089 1
 6726 10087 10088 1
 6727 10091 10092 1
 6728 10090 10091 1
 6729 10094 10095 1
 6730 10093 10094 1
 6731 10097 10098 1
 6732 10096 10097 1
 6733 10100 10101 1
 6734 10099 10100 1
 6735 10103 10104 1
 6736 10102 10103 1
 6737 10106 10107 1
 6738 10105 10106 1
 6739 10109 10110 1
 6740 10108 10109 1
 6741 10112 10113 1
 6742 10111 10112 1
 6743 10115 10116 1
 6744 10114 10115 1
 6745 10118 10119 1
 6746 10117 10118 1
 6747 10121 10122 1
 6748 10120 10121 1
 6749 10124 10125 1
 6750 10123 10124 1
 6751 10127 10128 1
 6752 10126 10127 1
 6753 10130 10131 1
 6754 10129 10130 1
 6755 10133 10134 1
 6756 10132 10133 1
 6757 10136 10137 1
 6758 10135 10136 1
 6759 10139 10140 1
 6760 10138 10139 1
 6761 10142 10143 1
 6762 10141 10142 1
 6763 10145 10146 1
 6764 10144 10145 1
 6765 10148 10149 1
 6766 10147 10148 1
 6767 10151 10152 1
 6768 10150 10151 1
 6769 10154 10155 1
 6770 10153 10154 1
 6771 10157 10158 1
 6772 10156 10157 1
 6773 10160 10161 1
 6774 10159 10160 1
 6775 10163 10164 1
 6776 10162 10163 1
 6777 10166 10167 1
 6778 10165 10166 1
 6779 10169 10170 1
 6780 10168 10169 1
 6781 10172 10173 1
 6782 10171 10172 1
 6783 10175 10176 1
 6784 10174 10175 1
 6785 10178 10179 1
 6786 10177 10178 1
 6787 10181 10182 1
 6788 10180 10181 1
 6789 10184 10185 1
 6790 10183 10184 1
 6791 10187 10188 1
 6792 10186 10187 1
 6793 10190 10191 1
 6794 10189 10190 1
 6795 10193 10194 1
 6796 10192 10193 1
 6797 10196 10197 1
 6798 10195 10196 1
 6799 10199 10200 1
 6800 10198 10199 1
 6801 10202 10203 1
 6802 10201 10202 1
 6803 10205 10206 1
 6804 10204 10205 1
 6805 10208 10209 1
 6806 10207 10208 1
 6807 10211 10212 1
 6808 10210 10211 1
 6809 10214 10215 1
 6810 10213 10214 1
 6811 10217 10218 1
 6812 10216 10217 1
 6813 10220 10221 1
 6814 10219 10220 1
 6815 10223 10224 1
 6816 10222 10223 1
 6817 10226 10227 1
 6818 10225 10226 1
 6819 10229 10230 1
 6820 10228 10229 1
 6821 10232 10233 1
 6822 10231 10232 1
 6823 10235 10236 1
 6824 10234 10235 1
 6825 10238 10239 1
 6826 10237 10238 1
 6827 10241 10242 1
 6828 10240 10241 1
 6829 10244 10245 1
 6830 10243 10244 1
 6831 10247 10248 1
 6832 10246 10247 1
 6833 10250 10251 1
 6834 10249 10250 1
 6835 10253 10254 1
 6836 10252 10253 1
 6837 10256 10257 1
 6838 10255 10256 1
 6839 10259 10260 1
 6840 10258 10259 1
 6841 10262 10263 1
 6842 10261 10262 1
 6843 10265 10266 1
 6844 10264 10265 1
 6845 10268 10269 1
 6846 10267 10268 1
 6847 10271 10272 1
 6848 10270 10271 1
 6849 10274 10275 1
 6850 10273 10274 1
 6851 10277 10278 1
 6852 10276 10277 1
 6853 10280 10281 1
 6854 10279 10280 1
 6855 10283 10284 1
 6856 10282 10283 1
 6857 10286 10287 1
 6858 10285 10286 1
 6859 10289 10290 1
 6860 10288 10289 1
 6861 10292 10293 1
 6862 10291 10292 1
 6863 10295 10296 1
 6864 10294 10295 1
 6865 10298 10299 1
 6866 10297 10298 1
 6867 10301 10302 1
 6868 10300 10301 1
 6869 10304 10305 1
 6870 10303 10304 1
 6871 10307 10308 1
 6872 10306 10307 1
 6873 10310 10311 1
 6874 10309 10310 1
 6875 10313 10314 1
 6876 10312 10313 1
 6877 10316 10317 1
 6878 10315 10316 1
 6879 10319 10320 1
 6880 10318 10319 1
 6881 10322 10323 1
 6882 10321 10322 1
 6883 10325 10326 1
 6884 10324 10325 1
 6885 10328 10329 1
 6886 10327 10328 1
 6887 10331 10332 1
 6888 10330 10331 1
 6889 10334 10335 1
 6890 10333 10334 1
 6891 10337 10338 1
 6892 10336 10337 1
 6893 10340 10341 1
 6894 10339 10340 1
 6895 10343 10344 1
 6896 10342 10343 1
 6897 10346 10347 1
 6898 10345 10346 1
 6899 10349 10350 1
 6900 10348 10349 1
 6901 10352 10353 1
 6902 10351 10352 1
 6903 10355 10356 1
 6904 10354 10355 1
 6905 10358 10359 1
 6906 10357 10358 1
 6907 10361 10362 1
 6908 10360 10361 1
 6909 10364 10365 1
 6910 10363 10364 1
 6911 10367 10368 1
 6912 10366 10367 1
 6913 10370 10371 1
 6914 10369 10370 1
 6915 10373 10374 1
 6916 10372 10373 1
 6917 10376 10377 1
 6918 10375 10376 1
 6919 10379 10380 1
 6920 10378 10379 1
 6921 10382 10383 1
 6922 10381 10382 1
 6923 10385 10386 1
 6924 10384 10385 1
 6925 10388 10389 1
 6926 10387 10388 1
 6927 10391 10392 1
 6928 10390 10391 1
 6929 10394 10395 1
 6930 10393 10394 1
 6931 10397 10398 1
 6932 10396 10397 1
 6933 10400 10401 1
 6934 10399 10400 1
 6935 10403 10404 1
 6936 10402 10403 1
 6937 10406 10407 1
 6938 10405 10406 1
 6939 10409 10410 1
 6940 10408 10409 1
 6941 10412 10413 1
 6942 10411 10412 1
 6943 10415 10416 1
 6944 10414 10415 1
 6945 10418 10419 1
 6946 10417 10418 1
 6947 10421 10422 1
 6948 10420 10421 1
 6949 10424 10425 1
 6950 10423 10424 1
 6951 10427 10428 1
 6952 10426 10427 1
 6953 10430 10431 1
 6954 10429 10430 1
 6955 10433 10434 1
 6956 10432 10433 1
 6957 10436 10437 1
 6958 10435 10436 1
 6959 10439 10440 1
 6960 10438 10439 1
 6961 10442 10443 1
 6962 10441 10442 1
 6963 10445 10446 1
 6964 10444 10445 1
 6965 10448 10449 1
 6966 10447 10448 1
 6967 10451 10452 1
 6968 10450 10451 1
 6969 10454 10455 1
 6970 10453 10454 1
 6971 10457 10458 1
 6972 10456 10457 1
 6973 10460 10461 1
 6974 10459 10460 1
 6975 10463 10464 1
 6976 10462 10463 1
 6977 10466 10467 1
 6978 10465 10466 1
 6979 10469 10470 1
 6980 10468 10469 1
 6981 10472 10473 1
 6982 10471 10472 1
 6983 10475 10476 1
 6984 10474 10475 1
 6985 10478 10479 1
 6986 10477 10478 1
 6987 10481 10482 1
 6988 10480 10481 1
 6989 10484 10485 1
 6990 10483 10484 1
 6991 10487 10488 1
 6992 10486 10487 1
 6993 10490 10491 1
 6994 10489 10490 1
 6995 10493 10494 1
 6996 10492 10493 1
 6997 10496 10497 1
 6998 10495 10496 1
 6999 10499 10500 1
 7000 10498 10499 1
 7001 10502 10503 1
 7002 10501 10502 1
 7003 10505 10506 1
 7004 10504 10505 1
 7005 10508 10509 1
 7006 10507 10508 1
 7007 10511 10512 1
 7008 10510 10511 1
 7009 10514 10515 1
 7010 10513 10514 1
 7011 10517 10518 1
 7012 10516 10517 1
 7013 10520 10521 1
 7014 10519 10520 1
 7015 10523 10524 1
 7016 10522 10523 1
 7017 10526 10527 1
 7018 10525 10526 1
 7019 10529 10530 1
 7020 10528 10529 1
 7021 10532 10533 1
 7022 10531 10532 1
 7023 10535 10536 1
 7024 10534 10535 1
 7025 10538 10539 1
 7026 10537 10538 1
 7027 10541 10542 1
 7028 10540 10541 1
 7029 10544 10545 1
 7030 10543 10544 1
 7031 10547 10548 1
 7032 10546 10547 1
 7033 10550 10551 1
 7034 10549 10550 1
 7035 10553 10554 1
 7036 10552 10553 1
 7037 10556 10557 1
 7038 10555 10556 1
 7039 10559 10560 1
 7040 10558 10559 1
 7041 10562 10563 1
 7042 10561 10562 1
 7043 10565 10566 1
 7044 10564 10565 1
 7045 10568 10569 1
 7046 10567 10568 1
 7047 10571 10572 1
 7048 10570 10571 1
 7049 10574 10575 1
 7050 10573 10574 1
 7051 10577 10578 1
 7052 10576 10577 1
 7053 10580 10581 1
 7054 10579 10580 1
 7055 10583 10584 1
 7056 10582 10583 1
 7057 10586 10587 1
 7058 10585 10586 1
 7059 10589 10590 1
 7060 10588 10589 1
 7061 10592 10593 1
 7062 10591 10592 1
 7063 10595 10596 1
 7064 10594 10595 1
 7065 10598 10599 1
 7066 10597 10598 1
 7067 10601 10602 1
 7068 10600 10601 1
 7069 10604 10605 1
 7070 10603 10604 1
 7071 10607 10608 1
 7072 10606 10607 1
 7073 10610 10611 1
 7074 10609 10610 1
 7075 10613 10614 1
 7076 10612 10613 1
 7077 10616 10617 1
 7078 10615 10616 1
 7079 10619 10620 1
 7080 10618 10619 1
 7081 10622 10623 1
 7082 10621 10622 1
 7083 10625 10626 1
 7084 10624 10625 1
 7085 10628 10629 1
 7086 10627 10628 1
 7087 10631 10632 1
 7088 10630 10631 1
 7089 10634 10635 1
 7090 10633 10634 1
 7091 10637 10638 1
 7092 10636 10637 1
 7093 10640 10641 1
 7094 10639 10640 1
 7095 10643 10644 1
 7096 10642 10643 1
 7097 10646 10647 1
 7098 10645 10646 1
 7099 10649 10650 1
 7100 10648 10649 1
 7101 10652 10653 1
 7102 10651 10652 1
 7103 10655 10656 1
 7104 10654 10655 1
 7105 10658 10659 1
 7106 10657 10658 1
 7107 10661 10662 1
 7108 10660 10661 1
 7109 10664 10665 1
 7110 10663 10664 1
 7111 10667 10668 1
 7112 10666 10667 1
 7113 10670 10671 1
 7114 10669 10670 1
 7115 10673 10674 1
 7116 10672 10673 1
 7117 10676 10677 1
 7118 10675 10676 1
 7119 10679 10680 1
 7120 10678 10679 1
 7121 10682 10683 1
 7122 10681 10682 1
 7123 10685 10686 1
 7124 10684 10685 1
 7125 10688 10689 1
 7126 10687 10688 1
 7127 10691 10692 1
 7128 10690 10691 1
 7129 10694 10695 1
 7130 10693 10694 1
 7131 10697 10698 1
 7132 10696 10697 1
 7133 10700 10701 1
 7134 10699 10700 1
 7135 10703 10704 1
 7136 10702 10703 1
 7137 10706 10707 1
 7138 10705 10706 1
 7139 10709 10710 1
 7140 10708 10709 1
 7141 10712 10713 1
 7142 10711 10712 1
 7143 10715 10716 1
 7144 10714 10715 1
 7145 10718 10719 1
 7146 10717 10718 1
 7147 10721 10722 1
 7148 10720 10721 1
 7149 10724 10725 1
 7150 10723 10724 1
 7151 10727 10728 1
 7152 10726 10727 1
 7153 10730 10731 1
 7154 10729 10730 1
 7155 10733 10734 1
 7156 10732 10733 1
 7157 10736 10737 1
 7158 10735 10736 1
 7159 10739 10740 1
 7160 10738 10739 1
 7161 10742 10743 1
 7162 10741 10742 1
 7163 10745 10746 1
 7164 10744 10745 1
 7165 10748 10749 1
 7166 10747 10748 1
 7167 10751 10752 1
 7168 10750 10751 1
 7169 10754 10755 1
 7170 10753 10754 1
 7171 10757 10758 1
 7172 10756 10757 1
 7173 10760 10761 1
 7174 10759 10760 1
 7175 10763 10764 1
 7176 10762 10763 1
 7177 10766 10767 1
 7178 10765 10766 1
 7179 10769 10770 1
 7180 10768 10769 1
 7181 10772 10773 1
 7182 10771 10772 1
 7183 10775 10776 1
 7184 10774 10775 1
 7185 10778 10779 1
 7186 10777 10778 1
 7187 10781 10782 1
 7188 10780 10781 1
 7189 10784 10785 1
 7190 10783 10784 1
 7191 10787 10788 1
 7192 10786 10787 1
 7193 10790 10791 1
 7194 10789 10790 1
 7195 10793 10794 1
 7196 10792 10793 1
 7197 10796 10797 1
 7198 10795 10796 1
 7199 10799 10800 1
 7200 10798 10799 1
 7201 10802 10803 1
 7202 10801 10802 1
 7203 10805 10806 1
 7204 10804 10805 1
 7205 10808 10809 1
 7206 10807 10808 1
 7207 10811 10812 1
 7208 10810 10811 1
 7209 10814 10815 1
 7210 10813 10814 1
 7211 10817 10818 1
 7212 10816 10817 1
 7213 10820 10821 1
 7214 10819 10820 1
 7215 10823 10824 1
 7216 10822 10823 1
 7217 10826 10827 1
 7218 10825 10826 1
 7219 10829 10830 1
 7220 10828 10829 1
 7221 10832 10833 1
 7222 10831 10832 1
 7223 10835 10836 1
 7224 10834 10835 1
 7225 10838 10839 1
 7226 10837 10838 1
 7227 10841 10842 1
 7228 10840 10841 1
 7229 10844 10845 1
 7230 10843 10844 1
 7231 10847 10848 1
 7232 10846 10847 1
 7233 10850 10851 1
 7234 10849 10850 1
 7235 10853 10854 1
 7236 10852 10853 1
 7237 10856 10857 1
 7238 10855 10856 1
 7239 10859 10860 1
 7240 10858 10859 1
 7241 10862 10863 1
 7242 10861 10862 1
 7243 10865 10866 1
 7244 10864 10865 1
 7245 10868 10869 1
 7246 10867 10868 1
 7247 10871 10872 1
 7248 10870 10871 1
 7249 10874 10875 1
 7250 10873 10874 1
 7251 10877 10878 1
 7252 10876 10877 1
 7253 10880 10881 1
 7254 10879 10880 1
 7255 10883 10884 1
 7256 10882 10883 1
 7257 10886 10887 1
 7258 10885 10886 1
 7259 10889 10890 1
 7260 10888 10889 1
 7261 10892 10893 1
 7262 10891 10892 1
 7263 10895 10896 1
 7264 10894 10895 1
 7265 10898 10899 1
 7266 10897 10898 1
 7267 10901 10902 1
 7268 10900 10901 1
 7269 10904 10905 1
 7270 10903 10904 1
 7271 10907 10908 1
 7272 10906 10907 1
 7273 10910 10911 1
 7274 10909 10910 1
 7275 10913 10914 1
 7276 10912 10913 1
 7277 10916 10917 1
 7278 10915 10916 1
 7279 10919 10920 1
 7280 10918 10919 1
 7281 10922 10923 1
 7282 10921 10922 1
 7283 10925 10926 1
 7284 10924 10925 1
 7285 10928 10929 1
 7286 10927 10928 1
 7287 10931 10932 1
 7288 10930 10931 1
 7289 10934 10935 1
 7290 10933 10934 1
 7291 10937 10938 1
 7292 10936 10937 1
 7293 10940 10941 1
 7294 10939 10940 1
 7295 10943 10944 1
 7296 10942 10943 1
 7297 10946 10947 1
 7298 10945 10946 1
 7299 10949 10950 1
 7300 10948 10949 1
 7301 10952 10953 1
 7302 10951 10952 1
 7303 10955 10956 1
 7304 10954 10955 1
 7305 10958 10959 1
 7306 10957 10958 1
 7307 10961 10962 1
 7308 10960 10961 1
 7309 10964 10965 1
 7310 10963 10964 1
 7311 10967 10968 1
 7312 10966 10967 1
 7313 10970 10971 1
 7314 10969 10970 1
 7315 10973 10974 1
 7316 10972 10973 1
 7317 10976 10977 1
 7318 10975 10976 1
 7319 10979 10980 1
 7320 10978 10979 1
 7321 10982 10983 1
 7322 10981 10982 1
 7323 10985 10986 1
 7324 10984 10985 1
 7325 10988 10989 1
 7326 10987 10988 1
 7327 10991 10992 1
 7328 10990 10991 1
 7329 10994 10995 1
 7330 10993 10994 1
 7331 10997 10998 1
 7332 10996 10997 1
 7333 11000 11001 1
 7334 10999 11000 1
 7335 11003 11004 1
 7336 11002 11003 1
 7337 11006 11007 1
 7338 11005 11006 1
 7339 11009 11010 1
 7340 11008 11009 1
 7341 11012 11013 1
 7342 11011 11012 1
 7343 11015 11016 1
 7344 11014 11015 1
 7345 11018 11019 1
 7346 11017 11018 1
 7347 11021 11022 1
 7348 11020 11021 1
 7349 11024 11025 1
 7350 11023 11024 1
 7351 11027 11028 1
 7352 11026 11027 1
 7353 11030 11031 1
 7354 11029 11030 1
 7355 11033 11034 1
 7356 11032 11033 1
 7357 11036 11037 1
 7358 11035 11036 1
 7359 11039 11040 1
 7360 11038 11039 1
 7361 11042 11043 1
 7362 11041 11042 1
 7363 11045 11046 1
 7364 11044 11045 1
 7365 11048 11049 1
 7366 11047 11048 1
 7367 11051 11052 1
 7368 11050 11051 1
 7369 11054 11055 1
 7370 11053 11054 1
 7371 11057 11058 1
 7372 11056 11057 1
 7373 11060 11061 1
 7374 11059 11060 1
 7375 11063 11064 1
 7376 11062 11063 1
 7377 11066 11067 1
 7378 11065 11066 1
 7379 11069 11070 1
 7380 11068 11069 1
 7381 11072 11073 1
 7382 11071 11072 1
 7383 11075 11076 1
 7384 11074 11075 1
 7385 11078 11079 1
 7386 11077 11078 1
 7387 11081 11082 1
 7388 11080 11081 1
 7389 11084 11085 1
 7390 11083 11084 1
 7391 11087 11088 1
 7392 11086 11087 1
 7393 11090 11091 1
 7394 11089 11090 1
 7395 11093 11094 1
 7396 11092 11093 1
 7397 11096 11097 1
 7398 11095 11096 1
 7399 11099 11100 1
 7400 11098 11099 1
 7401 11102 11103 1
 7402 11101 11102 1
 7403 11105 11106 1
 7404 11104 11105 1
 7405 11108 11109 1
 7406 11107 11108 1
 7407 11111 11112 1
 7408 11110 11111 1
 7409 11114 11115 1
 7410 11113 11114 1
 7411 11117 11118 1
 7412 11116 11117 1
 7413 11120 11121 1
 7414 11119 11120 1
 7415 11123 11124 1
 7416 11122 11123 1
 7417 11126 11127 1
 7418 11125 11126 1
 7419 11129 11130 1
 7420 11128 11129 1
 7421 11132 11133 1
 7422 11131 11132 1
 7423 11135 11136 1
 7424 11134 11135 1
 7425 11138 11139 1
 7426 11137 11138 1
 7427 11141 11142 1
 7428 11140 11141 1
 7429 11144 11145 1
 7430 11143 11144 1
 7431 11147 11148 1
 7432 11146 11147 1
 7433 11150 11151 1
 7434 11149 11150 1
 7435 11153 11154 1
 7436 11152 11153 1
 7437 11156 11157 1
 7438 11155 11156 1
 7439 11159 11160 1
 7440 11158 11159 1
 7441 11162 11163 1
 7442 11161 11162 1
 7443 11165 11166 1
 7444 11164 11165 1
 7445 11168 11169 1
 7446 11167 11168 1
 7447 11171 11172 1
 7448 11170 11171 1
 7449 11174 11175 1
 7450 11173 11174 1
 7451 11177 11178 1
 7452 11176 11177 1
 7453 11180 11181 1
 7454 11179 11180 1
 7455 11183 11184 1
 7456 11182 11183 1
 7457 11186 11187 1
 7458 11185 11186 1
 7459 11189 11190 1
 7460 11188 11189 1
 7461 11192 11193 1
 7462 11191 11192 1
 7463 11195 11196 1
 7464 11194 11195 1
 7465 11198 11199 1
 7466 11197 11198 1
 7467 11201 11202 1
 7468 11200 11201 1
 7469 11204 11205 1
 7470 11203 11204 1
 7471 11207 11208 1
 7472 11206 11207 1
 7473 11210 11211 1
 7474 11209 11210 1
 7475 11213 11214 1
 7476 11212 11213 1
 7477 11216 11217 1
 7478 11215 11216 1
 7479 11219 11220 1
 7480 11218 11219 1
 7481 11222 11223 1
 7482 11221 11222 1
 7483 11225 11226 1
 7484 11224 11225 1
 7485 11228 11229 1
 7486 11227 11228 1
 7487 11231 11232 1
 7488 11230 11231 1
 7489 11234 11235 1
 7490 11233 11234 1
 7491 11237 11238 1
 7492 11236 11237 1
 7493 11240 11241 1
 7494 11239 11240 1
 7495 11243 11244 1
 7496 11242 11243 1
 7497 11246 11247 1
 7498 11245 11246 1
 7499 11249 11250 1
 7500 11248 11249 1
 7501 11252 11253 1
 7502 11251 11252 1
 7503 11255 11256 1
 7504 11254 11255 1
 7505 11258 11259 1
 7506 11257 11258 1
 7507 11261 11262 1
 7508 11260 11261 1
 7509 11264 11265 1
 7510 11263 11264 1
 7511 11267 11268 1
 7512 11266 11267 1
 7513 11270 11271 1
 7514 11269 11270 1
 7515 11273 11274 1
 7516 11272 11273 1
 7517 11276 11277 1
 7518 11275 11276 1
 7519 11279 11280 1
 7520 11278 11279 1
 7521 11282 11283 1
 7522 11281 11282 1
 7523 11285 11286 1
 7524 11284 11285 1
 7525 11288 11289 1
 7526 11287 11288 1
 7527 11291 11292 1
 7528 11290 11291 1
 7529 11294 11295 1
 7530 11293 11294 1
 7531 11297 11298 1
 7532 11296 11297 1
 7533 11300 11301 1
 7534 11299 11300 1
 7535 11303 11304 1
 7536 11302 11303 1
 7537 11306 11307 1
 7538 11305 11306 1
 7539 11309 11310 1
 7540 11308 11309 1
 7541 11312 11313 1
 7542 11311 11312 1
 7543 11315 11316 1
 7544 11314 11315 1
 7545 11318 11319 1
 7546 11317 11318 1
 7547 11321 11322 1
 7548 11320 11321 1
 7549 11324 11325 1
 7550 11323 11324 1
 7551 11327 11328 1
 7552 11326 11327 1
 7553 11330 11331 1
 7554 11329 11330 1
 7555 11333 11334 1
 7556 11332 11333 1
 7557 11336 11337 1
 7558 11335 11336 1
 7559 11339 11340 1
 7560 11338 11339 1
 7561 11342 11343 1
 7562 11341 11342 1
 7563 11345 11346 1
 7564 11344 11345 1
 7565 11348 11349 1
 7566 11347 11348 1
 7567 11351 11352 1
 7568 11350 11351 1
 7569 11354 11355 1
 7570 11353 11354 1
 7571 11357 11358 1
 7572 11356 11357 1
 7573 11360 11361 1
 7574 11359 11360 1
 7575 11363 11364 1
 7576 11362 11363 1
 7577 11366 11367 1
 7578 11365 11366 1
 7579 11369 11370 1
 7580 11368 11369 1
 7581 11372 11373 1
 7582 11371 11372 1
 7583 11375 11376 1
 7584 11374 11375 1
 7585 11378 11379 1
 7586 11377 11378 1
 7587 11381 11382 1
 7588 11380 11381 1
 7589 11384 11385 1
 7590 11383 11384 1
 7591 11387 11388 1
 7592 11386 11387 1
 7593 11390 11391 1
 7594 11389 11390 1
 7595 11393 11394 1
 7596 11392 11393 1
 7597 11396 11397 1
 7598 11395 11396 1
 7599 11399 11400 1
 7600 11398 11399 1
 7601 11402 11403 1
 7602 11401 11402 1
 7603 11405 11406 1
 7604 11404 11405 1
 7605 11408 11409 1
 7606 11407 11408 1
 7607 11411 11412 1
 7608 11410 11411 1
 7609 11414 11415 1
 7610 11413 11414 1
 7611 11417 11418 1
 7612 11416 11417 1
 7613 11420 11421 1
 7614 11419 11420 1
 7615 11423 11424 1
 7616 11422 11423 1
 7617 11426 11427 1
 7618 11425 11426 1
 7619 11429 11430 1
 7620 11428 11429 1
 7621 11432 11433 1
 7622 11431 11432 1
 7623 11435 11436 1
 7624 11434 11435 1
 7625 11438 11439 1
 7626 11437 11438 1
 7627 11441 11442 1
 7628 11440 11441 1
 7629 11444 11445 1
 7630 11443 11444 1
 7631 11447 11448 1
 7632 11446 11447 1
 7633 11450 11451 1
 7634 11449 11450 1
 7635 11453 11454 1
 7636 11452 11453 1
 7637 11456 11457 1
 7638 11455 11456 1
 7639 11459 11460 1
 7640 11458 11459 1
 7641 11462 11463 1
 7642 11461 11462 1
 7643 11465 11466 1
 7644 11464 11465 1
 7645 11468 11469 1
 7646 11467 11468 1
 7647 11471 11472 1
 7648 11470 11471 1
 7649 11474 11475 1
 7650 11473 11474 1
 7651 11477 11478 1
 7652 11476 11477 1
 7653 11480 11481 1
 7654 11479 11480 1
 7655 11483 11484 1
 7656 11482 11483 1
 7657 11486 11487 1
 7658 11485 11486 1
 7659 11489 11490 1
 7660 11488 11489 1
 7661 11492 11493 1
 7662 11491 11492 1
 7663 11495 11496 1
 7664 11494 11495 1
 7665 11498 11499 1
 7666 11497 11498 1
 7667 11501 11502 1
 7668 11500 11501 1
 7669 11504 11505 1
 7670 11503 11504 1
 7671 11507 11508 1
 7672 11506 11507 1
@<TRIPOS>SUBSTRUCTURE
      1  GLP              1 ****               0 ****  **** 
      2  GLP              4 ****               0 ****  **** 
      3  GLP              7 ****               0 ****  **** 
      4  GLP             10 ****               0 ****  **** 
      5  GLP             13 ****               0 ****  **** 
      6  GLP             16 ****               0 ****  **** 
      7  GLP             19 ****               0 ****  **** 
      8  GLP             22 ****               0 ****  **** 
      9  GLP             25 ****               0 ****  **** 
     10  GLP             28 ****               0 ****  **** 
     11  GLP             31 ****               0 ****  **** 
     12  GLP             34 ****               0 ****  **** 
     13  GLP             37 ****               0 ****  **** 
     14  GLP             40 ****               0 ****  **** 
     15  GLP             43 ****               0 ****  **** 
     16  GLP             46 ****               0 ****  **** 
     17  GLP             49 ****               0 ****  **** 
     18  GLP             52 ****               0 ****  **** 
     19  GLP             55 ****               0 ****  **** 
     20  GLP             58 ****               0 ****  **** 
     21  GLP             61 ****               0 ****  **** 
     22  GLP             64 ****               0 ****  **** 
     23  GLP             67 ****               0 ****  **** 
     24  GLP             70 ****               0 ****  **** 
     25  GLP             73 ****               0 ****  **** 
     26  GLP             76 ****               0 ****  **** 
     27  GLP             79 ****               0 ****  **** 
     28  GLP             82 ****               0 ****  **** 
     29  GLP             85 ****               0 ****  **** 
     30  GLP             88 ****               0 ****  **** 
     31  GLP             91 ****               0 ****  **** 
     32  GLP             94 ****               0 ****  **** 
     33  GLP             97 ****               0 ****  **** 
     34  GLP            100 ****               0 ****  **** 
     35  GLP            103 ****               0 ****  **** 
     36  GLP            106 ****               0 ****  **** 
     37  GLP            109 ****               0 ****  **** 
     38  GLP            112 ****               0 ****  **** 
     39  GLP            115 ****               0 ****  **** 
     40  GLP            118 ****               0 ****  **** 
     41  GLP            121 ****               0 ****  **** 
     42  GLP            124 ****               0 ****  **** 
     43  GLP            127 ****               0 ****  **** 
     44  GLP            130 ****               0 ****  **** 
     45  GLP            133 ****               0 ****  **** 
     46  GLP            136 ****               0 ****  **** 
     47  GLP            139 ****               0 ****  **** 
     48  GLP            142 ****               0 ****  **** 
     49  GLP            145 ****               0 ****  **** 
     50  GLP            148 ****               0 ****  **** 
     51  GLP            151 ****               0 ****  **** 
     52  GLP            154 ****               0 ****  **** 
     53  GLP            157 ****               0 ****  **** 
     54  GLP            160 ****               0 ****  **** 
     55  GLP            163 ****               0 ****  **** 
     56  GLP            166 ****               0 ****  **** 
     57  GLP            169 ****               0 ****  **** 
     58  GLP            172 ****               0 ****  **** 
     59  GLP            175 ****               0 ****  **** 
     60  GLP            178 ****               0 ****  **** 
     61  GLP            181 ****               0 ****  **** 
     62  GLP            184 ****               0 ****  **** 
     63  GLP            187 ****               0 ****  **** 
     64  GLP            190 ****               0 ****  **** 
     65  GLP            193 ****               0 ****  **** 
     66  GLP            196 ****               0 ****  **** 
     67  GLP            199 ****               0 ****  **** 
     68  GLP            202 ****               0 ****  **** 
     69  GLP            205 ****               0 ****  **** 
     70  GLP            208 ****               0 ****  **** 
     71  GLP            211 ****               0 ****  **** 
     72  GLP            214 ****               0 ****  **** 
     73  GLP            217 ****               0 ****  **** 
     74  GLP            220 ****               0 ****  **** 
     75  GLP            223 ****               0 ****  **** 
     76  GLP            226 ****               0 ****  **** 
     77  GLP            229 ****               0 ****  **** 
     78  GLP            232 ****               0 ****  **** 
     79  GLP            235 ****               0 ****  **** 
     80  GLP            238 ****               0 ****  **** 
     81  GLP            241 ****               0 ****  **** 
     82  GLP            244 ****               0 ****  **** 
     83  GLP            247 ****               0 ****  **** 
     84  GLP            250 ****               0 ****  **** 
     85  GLP            253 ****               0 ****  **** 
     86  GLP            256 ****               0 ****  **** 
     87  GLP            259 ****               0 ****  **** 
     88  GLP            262 ****               0 ****  **** 
     89  GLP            265 ****               0 ****  **** 
     90  GLP            268 ****               0 ****  **** 
     91  GLP            271 ****               0 ****  **** 
     92  GLP            274 ****               0 ****  **** 
     93  GLP            277 ****               0 ****  **** 
     94  GLP            280 ****               0 ****  **** 
     95  GLP            283 ****               0 ****  **** 
     96  GLP            286 ****               0 ****  **** 
     97  GLP            289 ****               0 ****  **** 
     98  GLP            292 ****               0 ****  **** 
     99  GLP            295 ****               0 ****  **** 
    100  GLP            298 ****               0 ****  **** 
    101  GLP            301 ****               0 ****  **** 
    102  GLP            304 ****               0 ****  **** 
    103  GLP            307 ****               0 ****  **** 
    104  GLP            310 ****               0 ****  **** 
    105  GLP            313 ****               0 ****  **** 
    106  GLP            316 ****               0 ****  **** 
    107  GLP            319 ****               0 ****  **** 
    108  GLP            322 ****               0 ****  **** 
    109  GLP            325 ****               0 ****  **** 
    110  GLP            328 ****               0 ****  **** 
    111  GLP            331 ****               0 ****  **** 
    112  GLP            334 ****               0 ****  **** 
    113  GLP            337 ****               0 ****  **** 
    114  GLP            340 ****               0 ****  **** 
    115  GLP            343 ****               0 ****  **** 
    116  GLP            346 ****               0 ****  **** 
    117  GLP            349 ****               0 ****  **** 
    118  GLP            352 ****               0 ****  **** 
    119  GLP            355 ****               0 ****  **** 
    120  GLP            358 ****               0 ****  **** 
    121  GLP            361 ****               0 ****  **** 
    122  GLP            364 ****               0 ****  **** 
    123  GLP            367 ****               0 ****  **** 
    124  GLP            370 ****               0 ****  **** 
    125  GLP            373 ****               0 ****  **** 
    126  GLP            376 ****               0 ****  **** 
    127  GLP            379 ****               0 ****  **** 
    128  GLP            382 ****               0 ****  **** 
    129  GLP            385 ****               0 ****  **** 
    130  GLP            388 ****               0 ****  **** 
    131  GLP            391 ****               0 ****  **** 
    132  GLP            394 ****               0 ****  **** 
    133  GLP            397 ****               0 ****  **** 
    134  GLP            400 ****               0 ****  **** 
    135  GLP            403 ****               0 ****  **** 
    136  GLP            406 ****               0 ****  **** 
    137  GLP            409 ****               0 ****  **** 
    138  GLP            412 ****               0 ****  **** 
    139  GLP            415 ****               0 ****  **** 
    140  GLP            418 ****               0 ****  **** 
    141  GLP            421 ****               0 ****  **** 
    142  GLP            424 ****               0 ****  **** 
    143  GLP            427 ****               0 ****  **** 
    144  GLP            430 ****               0 ****  **** 
    145  GLP            433 ****               0 ****  **** 
    146  GLP            436 ****               0 ****  **** 
    147  GLP            439 ****               0 ****  **** 
    148  GLP            442 ****               0 ****  **** 
    149  GLP            445 ****               0 ****  **** 
    150  GLP            448 ****               0 ****  **** 
    151  GLP            451 ****               0 ****  **** 
    152  GLP            454 ****               0 ****  **** 
    153  GLP            457 ****               0 ****  **** 
    154  GLP            460 ****               0 ****  **** 
    155  GLP            463 ****               0 ****  **** 
    156  GLP            466 ****               0 ****  **** 
    157  GLP            469 ****               0 ****  **** 
    158  GLP            472 ****               0 ****  **** 
    159  GLP            475 ****               0 ****  **** 
    160  GLP            478 ****               0 ****  **** 
    161  GLP            481 ****               0 ****  **** 
    162  GLP            484 ****               0 ****  **** 
    163  GLP            487 ****               0 ****  **** 
    164  GLP            490 ****               0 ****  **** 
    165  GLP            493 ****               0 ****  **** 
    166  GLP            496 ****               0 ****  **** 
    167  GLP            499 ****               0 ****  **** 
    168  GLP            502 ****               0 ****  **** 
    169  GLP            505 ****               0 ****  **** 
    170  GLP            508 ****               0 ****  **** 
    171  GLP            511 ****               0 ****  **** 
    172  GLP            514 ****               0 ****  **** 
    173  GLP            517 ****               0 ****  **** 
    174  GLP            520 ****               0 ****  **** 
    175  GLP            523 ****               0 ****  **** 
    176  GLP            526 ****               0 ****  **** 
    177  GLP            529 ****               0 ****  **** 
    178  GLP            532 ****               0 ****  **** 
    179  GLP            535 ****               0 ****  **** 
    180  GLP            538 ****               0 ****  **** 
    181  GLP            541 ****               0 ****  **** 
    182  GLP            544 ****               0 ****  **** 
    183  GLP            547 ****               0 ****  **** 
    184  GLP            550 ****               0 ****  **** 
    185  GLP            553 ****               0 ****  **** 
    186  GLP            556 ****               0 ****  **** 
    187  GLP            559 ****               0 ****  **** 
    188  GLP            562 ****               0 ****  **** 
    189  GLP            565 ****               0 ****  **** 
    190  GLP            568 ****               0 ****  **** 
    191  GLP            571 ****               0 ****  **** 
    192  GLP            574 ****               0 ****  **** 
    193  GLP            577 ****               0 ****  **** 
    194  GLP            580 ****               0 ****  **** 
    195  GLP            583 ****               0 ****  **** 
    196  GLP            586 ****               0 ****  **** 
    197  GLP            589 ****               0 ****  **** 
    198  GLP            592 ****               0 ****  **** 
    199  GLP            595 ****               0 ****  **** 
    200  GLP            598 ****               0 ****  **** 
    201  GLP            601 ****               0 ****  **** 
    202  GLP            604 ****               0 ****  **** 
    203  GLP            607 ****               0 ****  **** 
    204  GLP            610 ****               0 ****  **** 
    205  GLP            613 ****               0 ****  **** 
    206  GLP            616 ****               0 ****  **** 
    207  GLP            619 ****               0 ****  **** 
    208  GLP            622 ****               0 ****  **** 
    209  GLP            625 ****               0 ****  **** 
    210  GLP            628 ****               0 ****  **** 
    211  GLP            631 ****               0 ****  **** 
    212  GLP            634 ****               0 ****  **** 
    213  GLP            637 ****               0 ****  **** 
    214  GLP            640 ****               0 ****  **** 
    215  GLP            643 ****               0 ****  **** 
    216  GLP            646 ****               0 ****  **** 
    217  GLP            649 ****               0 ****  **** 
    218  GLP            652 ****               0 ****  **** 
    219  GLP            655 ****               0 ****  **** 
    220  GLP            658 ****               0 ****  **** 
    221  GLP            661 ****               0 ****  **** 
    222  GLP            664 ****               0 ****  **** 
    223  GLP            667 ****               0 ****  **** 
    224  GLP            670 ****               0 ****  **** 
    225  GLP            673 ****               0 ****  **** 
    226  GLP            676 ****               0 ****  **** 
    227  GLP            679 ****               0 ****  **** 
    228  GLP            682 ****               0 ****  **** 
    229  GLP            685 ****               0 ****  **** 
    230  GLP            688 ****               0 ****  **** 
    231  GLP            691 ****               0 ****  **** 
    232  GLP            694 ****               0 ****  **** 
    233  GLP            697 ****               0 ****  **** 
    234  GLP            700 ****               0 ****  **** 
    235  GLP            703 ****               0 ****  **** 
    236  GLP            706 ****               0 ****  **** 
    237  GLP            709 ****               0 ****  **** 
    238  GLP            712 ****               0 ****  **** 
    239  GLP            715 ****               0 ****  **** 
    240  GLP            718 ****               0 ****  **** 
    241  GLP            721 ****               0 ****  **** 
    242  GLP            724 ****               0 ****  **** 
    243  GLP            727 ****               0 ****  **** 
    244  GLP            730 ****               0 ****  **** 
    245  GLP            733 ****               0 ****  **** 
    246  GLP            736 ****               0 ****  **** 
    247  GLP            739 ****               0 ****  **** 
    248  GLP            742 ****               0 ****  **** 
    249  GLP            745 ****               0 ****  **** 
    250  GLP            748 ****               0 ****  **** 
    251  GLP            751 ****               0 ****  **** 
    252  GLP            754 ****               0 ****  **** 
    253  GLP            757 ****               0 ****  **** 
    254  GLP            760 ****               0 ****  **** 
    255  GLP            763 ****               0 ****  **** 
    256  GLP            766 ****               0 ****  **** 
    257  GLP            769 ****               0 ****  **** 
    258  GLP            772 ****               0 ****  **** 
    259  GLP            775 ****               0 ****  **** 
    260  GLP            778 ****               0 ****  **** 
    261  GLP            781 ****               0 ****  **** 
    262  GLP            784 ****               0 ****  **** 
    263  GLP            787 ****               0 ****  **** 
    264  GLP            790 ****               0 ****  **** 
    265  GLP            793 ****               0 ****  **** 
    266  GLP            796 ****               0 ****  **** 
    267  GLP            799 ****               0 ****  **** 
    268  GLP            802 ****               0 ****  **** 
    269  GLP            805 ****               0 ****  **** 
    270  GLP            808 ****               0 ****  **** 
    271  GLP            811 ****               0 ****  **** 
    272  GLP            814 ****               0 ****  **** 
    273  GLP            817 ****               0 ****  **** 
    274  GLP            820 ****               0 ****  **** 
    275  GLP            823 ****               0 ****  **** 
    276  GLP            826 ****               0 ****  **** 
    277  GLP            829 ****               0 ****  **** 
    278  GLP            832 ****               0 ****  **** 
    279  GLP            835 ****               0 ****  **** 
    280  GLP            838 ****               0 ****  **** 
    281  GLP            841 ****               0 ****  **** 
    282  GLP            844 ****               0 ****  **** 
    283  GLP            847 ****               0 ****  **** 
    284  GLP            850 ****               0 ****  **** 
    285  GLP            853 ****               0 ****  **** 
    286  GLP            856 ****               0 ****  **** 
    287  GLP            859 ****               0 ****  **** 
    288  GLP            862 ****               0 ****  **** 
    289  GLP            865 ****               0 ****  **** 
    290  GLP            868 ****               0 ****  **** 
    291  GLP            871 ****               0 ****  **** 
    292  GLP            874 ****               0 ****  **** 
    293  GLP            877 ****               0 ****  **** 
    294  GLP            880 ****               0 ****  **** 
    295  GLP            883 ****               0 ****  **** 
    296  GLP            886 ****               0 ****  **** 
    297  GLP            889 ****               0 ****  **** 
    298  GLP            892 ****               0 ****  **** 
    299  GLP            895 ****               0 ****  **** 
    300  GLP            898 ****               0 ****  **** 
    301  GLP            901 ****               0 ****  **** 
    302  GLP            904 ****               0 ****  **** 
    303  GLP            907 ****               0 ****  **** 
    304  GLP            910 ****               0 ****  **** 
    305  GLP            913 ****               0 ****  **** 
    306  GLP            916 ****               0 ****  **** 
    307  GLP            919 ****               0 ****  **** 
    308  GLP            922 ****               0 ****  **** 
    309  GLP            925 ****               0 ****  **** 
    310  GLP            928 ****               0 ****  **** 
    311  GLP            931 ****               0 ****  **** 
    312  GLP            934 ****               0 ****  **** 
    313  GLP            937 ****               0 ****  **** 
    314  GLP            940 ****               0 ****  **** 
    315  GLP            943 ****               0 ****  **** 
    316  GLP            946 ****               0 ****  **** 
    317  GLP            949 ****               0 ****  **** 
    318  GLP            952 ****               0 ****  **** 
    319  GLP            955 ****               0 ****  **** 
    320  GLP            958 ****               0 ****  **** 
    321  GLP            961 ****               0 ****  **** 
    322  GLP            964 ****               0 ****  **** 
    323  GLP            967 ****               0 ****  **** 
    324  GLP            970 ****               0 ****  **** 
    325  GLP            973 ****               0 ****  **** 
    326  GLP            976 ****               0 ****  **** 
    327  GLP            979 ****               0 ****  **** 
    328  GLP            982 ****               0 ****  **** 
    329  GLP            985 ****               0 ****  **** 
    330  GLP            988 ****               0 ****  **** 
    331  GLP            991 ****               0 ****  **** 
    332  GLP            994 ****               0 ****  **** 
    333  GLP            997 ****               0 ****  **** 
    334  GLP           1000 ****               0 ****  **** 
    335  GLP           1003 ****               0 ****  **** 
    336  GLP           1006 ****               0 ****  **** 
    337  GLP           1009 ****               0 ****  **** 
    338  GLP           1012 ****               0 ****  **** 
    339  GLP           1015 ****               0 ****  **** 
    340  GLP           1018 ****               0 ****  **** 
    341  GLP           1021 ****               0 ****  **** 
    342  GLP           1024 ****               0 ****  **** 
    343  GLP           1027 ****               0 ****  **** 
    344  GLP           1030 ****               0 ****  **** 
    345  GLP           1033 ****               0 ****  **** 
    346  GLP           1036 ****               0 ****  **** 
    347  GLP           1039 ****               0 ****  **** 
    348  GLP           1042 ****               0 ****  **** 
    349  GLP           1045 ****               0 ****  **** 
    350  GLP           1048 ****               0 ****  **** 
    351  GLP           1051 ****               0 ****  **** 
    352  GLP           1054 ****               0 ****  **** 
    353  GLP           1057 ****               0 ****  **** 
    354  GLP           1060 ****               0 ****  **** 
    355  GLP           1063 ****               0 ****  **** 
    356  GLP           1066 ****               0 ****  **** 
    357  GLP           1069 ****               0 ****  **** 
    358  GLP           1072 ****               0 ****  **** 
    359  GLP           1075 ****               0 ****  **** 
    360  GLP           1078 ****               0 ****  **** 
    361  GLP           1081 ****               0 ****  **** 
    362  GLP           1084 ****               0 ****  **** 
    363  GLP           1087 ****               0 ****  **** 
    364  GLP           1090 ****               0 ****  **** 
    365  GLP           1093 ****               0 ****  **** 
    366  GLP           1096 ****               0 ****  **** 
    367  GLP           1099 ****               0 ****  **** 
    368  GLP           1102 ****               0 ****  **** 
    369  GLP           1105 ****               0 ****  **** 
    370  GLP           1108 ****               0 ****  **** 
    371  GLP           1111 ****               0 ****  **** 
    372  GLP           1114 ****               0 ****  **** 
    373  GLP           1117 ****               0 ****  **** 
    374  GLP           1120 ****               0 ****  **** 
    375  GLP           1123 ****               0 ****  **** 
    376  GLP           1126 ****               0 ****  **** 
    377  GLP           1129 ****               0 ****  **** 
    378  GLP           1132 ****               0 ****  **** 
    379  GLP           1135 ****               0 ****  **** 
    380  GLP           1138 ****               0 ****  **** 
    381  GLP           1141 ****               0 ****  **** 
    382  GLP           1144 ****               0 ****  **** 
    383  GLP           1147 ****               0 ****  **** 
    384  GLP           1150 ****               0 ****  **** 
    385  GLP           1153 ****               0 ****  **** 
    386  GLP           1156 ****               0 ****  **** 
    387  GLP           1159 ****               0 ****  **** 
    388  GLP           1162 ****               0 ****  **** 
    389  GLP           1165 ****               0 ****  **** 
    390  GLP           1168 ****               0 ****  **** 
    391  GLP           1171 ****               0 ****  **** 
    392  GLP           1174 ****               0 ****  **** 
    393  GLP           1177 ****               0 ****  **** 
    394  GLP           1180 ****               0 ****  **** 
    395  GLP           1183 ****               0 ****  **** 
    396  GLP           1186 ****               0 ****  **** 
    397  GLP           1189 ****               0 ****  **** 
    398  GLP           1192 ****               0 ****  **** 
    399  GLP           1195 ****               0 ****  **** 
    400  GLP           1198 ****               0 ****  **** 
    401  GLP           1201 ****               0 ****  **** 
    402  GLP           1204 ****               0 ****  **** 
    403  GLP           1207 ****               0 ****  **** 
    404  GLP           1210 ****               0 ****  **** 
    405  GLP           1213 ****               0 ****  **** 
    406  GLP           1216 ****               0 ****  **** 
    407  GLP           1219 ****               0 ****  **** 
    408  GLP           1222 ****               0 ****  **** 
    409  GLP           1225 ****               0 ****  **** 
    410  GLP           1228 ****               0 ****  **** 
    411  GLP           1231 ****               0 ****  **** 
    412  GLP           1234 ****               0 ****  **** 
    413  GLP           1237 ****               0 ****  **** 
    414  GLP           1240 ****               0 ****  **** 
    415  GLP           1243 ****               0 ****  **** 
    416  GLP           1246 ****               0 ****  **** 
    417  GLP           1249 ****               0 ****  **** 
    418  GLP           1252 ****               0 ****  **** 
    419  GLP           1255 ****               0 ****  **** 
    420  GLP           1258 ****               0 ****  **** 
    421  GLP           1261 ****               0 ****  **** 
    422  GLP           1264 ****               0 ****  **** 
    423  GLP           1267 ****               0 ****  **** 
    424  GLP           1270 ****               0 ****  **** 
    425  GLP           1273 ****               0 ****  **** 
    426  GLP           1276 ****               0 ****  **** 
    427  GLP           1279 ****               0 ****  **** 
    428  GLP           1282 ****               0 ****  **** 
    429  GLP           1285 ****               0 ****  **** 
    430  GLP           1288 ****               0 ****  **** 
    431  GLP           1291 ****               0 ****  **** 
    432  GLP           1294 ****               0 ****  **** 
    433  GLP           1297 ****               0 ****  **** 
    434  GLP           1300 ****               0 ****  **** 
    435  GLP           1303 ****               0 ****  **** 
    436  GLP           1306 ****               0 ****  **** 
    437  GLP           1309 ****               0 ****  **** 
    438  GLP           1312 ****               0 ****  **** 
    439  GLP           1315 ****               0 ****  **** 
    440  GLP           1318 ****               0 ****  **** 
    441  GLP           1321 ****               0 ****  **** 
    442  GLP           1324 ****               0 ****  **** 
    443  GLP           1327 ****               0 ****  **** 
    444  GLP           1330 ****               0 ****  **** 
    445  GLP           1333 ****               0 ****  **** 
    446  GLP           1336 ****               0 ****  **** 
    447  GLP           1339 ****               0 ****  **** 
    448  GLP           1342 ****               0 ****  **** 
    449  GLP           1345 ****               0 ****  **** 
    450  GLP           1348 ****               0 ****  **** 
    451  GLP           1351 ****               0 ****  **** 
    452  GLP           1354 ****               0 ****  **** 
    453  GLP           1357 ****               0 ****  **** 
    454  GLP           1360 ****               0 ****  **** 
    455  GLP           1363 ****               0 ****  **** 
    456  GLP           1366 ****               0 ****  **** 
    457  GLP           1369 ****               0 ****  **** 
    458  GLP           1372 ****               0 ****  **** 
    459  GLP           1375 ****               0 ****  **** 
    460  GLP           1378 ****               0 ****  **** 
    461  GLP           1381 ****               0 ****  **** 
    462  GLP           1384 ****               0 ****  **** 
    463  GLP           1387 ****               0 ****  **** 
    464  GLP           1390 ****               0 ****  **** 
    465  GLP           1393 ****               0 ****  **** 
    466  GLP           1396 ****               0 ****  **** 
    467  GLP           1399 ****               0 ****  **** 
    468  GLP           1402 ****               0 ****  **** 
    469  GLP           1405 ****               0 ****  **** 
    470  GLP           1408 ****               0 ****  **** 
    471  GLP           1411 ****               0 ****  **** 
    472  GLP           1414 ****               0 ****  **** 
    473  GLP           1417 ****               0 ****  **** 
    474  GLP           1420 ****               0 ****  **** 
    475  GLP           1423 ****               0 ****  **** 
    476  GLP           1426 ****               0 ****  **** 
    477  GLP           1429 ****               0 ****  **** 
    478  GLP           1432 ****               0 ****  **** 
    479  GLP           1435 ****               0 ****  **** 
    480  GLP           1438 ****               0 ****  **** 
    481  GLP           1441 ****               0 ****  **** 
    482  GLP           1444 ****               0 ****  **** 
    483  GLP           1447 ****               0 ****  **** 
    484  GLP           1450 ****               0 ****  **** 
    485  GLP           1453 ****               0 ****  **** 
    486  GLP           1456 ****               0 ****  **** 
    487  GLP           1459 ****               0 ****  **** 
    488  GLP           1462 ****               0 ****  **** 
    489  GLP           1465 ****               0 ****  **** 
    490  GLP           1468 ****               0 ****  **** 
    491  GLP           1471 ****               0 ****  **** 
    492  GLP           1474 ****               0 ****  **** 
    493  GLP           1477 ****               0 ****  **** 
    494  GLP           1480 ****               0 ****  **** 
    495  GLP           1483 ****               0 ****  **** 
    496  GLP           1486 ****               0 ****  **** 
    497  GLP           1489 ****               0 ****  **** 
    498  GLP           1492 ****               0 ****  **** 
    499  GLP           1495 ****               0 ****  **** 
    500  GLP           1498 ****               0 ****  **** 
    501  GLP           1501 ****               0 ****  **** 
    502  GLP           1504 ****               0 ****  **** 
    503  GLP           1507 ****               0 ****  **** 
    504  GLP           1510 ****               0 ****  **** 
    505  GLP           1513 ****               0 ****  **** 
    506  GLP           1516 ****               0 ****  **** 
    507  GLP           1519 ****               0 ****  **** 
    508  GLP           1522 ****               0 ****  **** 
    509  GLP           1525 ****               0 ****  **** 
    510  GLP           1528 ****               0 ****  **** 
    511  GLP           1531 ****               0 ****  **** 
    512  GLP           1534 ****               0 ****  **** 
    513  GLP           1537 ****               0 ****  **** 
    514  GLP           1540 ****               0 ****  **** 
    515  GLP           1543 ****               0 ****  **** 
    516  GLP           1546 ****               0 ****  **** 
    517  GLP           1549 ****               0 ****  **** 
    518  GLP           1552 ****               0 ****  **** 
    519  GLP           1555 ****               0 ****  **** 
    520  GLP           1558 ****               0 ****  **** 
    521  GLP           1561 ****               0 ****  **** 
    522  GLP           1564 ****               0 ****  **** 
    523  GLP           1567 ****               0 ****  **** 
    524  GLP           1570 ****               0 ****  **** 
    525  GLP           1573 ****               0 ****  **** 
    526  GLP           1576 ****               0 ****  **** 
    527  GLP           1579 ****               0 ****  **** 
    528  GLP           1582 ****               0 ****  **** 
    529  GLP           1585 ****               0 ****  **** 
    530  GLP           1588 ****               0 ****  **** 
    531  GLP           1591 ****               0 ****  **** 
    532  GLP           1594 ****               0 ****  **** 
    533  GLP           1597 ****               0 ****  **** 
    534  GLP           1600 ****               0 ****  **** 
    535  GLP           1603 ****               0 ****  **** 
    536  GLP           1606 ****               0 ****  **** 
    537  GLP           1609 ****               0 ****  **** 
    538  GLP           1612 ****               0 ****  **** 
    539  GLP           1615 ****               0 ****  **** 
    540  GLP           1618 ****               0 ****  **** 
    541  GLP           1621 ****               0 ****  **** 
    542  GLP           1624 ****               0 ****  **** 
    543  GLP           1627 ****               0 ****  **** 
    544  GLP           1630 ****               0 ****  **** 
    545  GLP           1633 ****               0 ****  **** 
    546  GLP           1636 ****               0 ****  **** 
    547  GLP           1639 ****               0 ****  **** 
    548  GLP           1642 ****               0 ****  **** 
    549  GLP           1645 ****               0 ****  **** 
    550  GLP           1648 ****               0 ****  **** 
    551  GLP           1651 ****               0 ****  **** 
    552  GLP           1654 ****               0 ****  **** 
    553  GLP           1657 ****               0 ****  **** 
    554  GLP           1660 ****               0 ****  **** 
    555  GLP           1663 ****               0 ****  **** 
    556  GLP           1666 ****               0 ****  **** 
    557  GLP           1669 ****               0 ****  **** 
    558  GLP           1672 ****               0 ****  **** 
    559  GLP           1675 ****               0 ****  **** 
    560  GLP           1678 ****               0 ****  **** 
    561  GLP           1681 ****               0 ****  **** 
    562  GLP           1684 ****               0 ****  **** 
    563  GLP           1687 ****               0 ****  **** 
    564  GLP           1690 ****               0 ****  **** 
    565  GLP           1693 ****               0 ****  **** 
    566  GLP           1696 ****               0 ****  **** 
    567  GLP           1699 ****               0 ****  **** 
    568  GLP           1702 ****               0 ****  **** 
    569  GLP           1705 ****               0 ****  **** 
    570  GLP           1708 ****               0 ****  **** 
    571  GLP           1711 ****               0 ****  **** 
    572  GLP           1714 ****               0 ****  **** 
    573  GLP           1717 ****               0 ****  **** 
    574  GLP           1720 ****               0 ****  **** 
    575  GLP           1723 ****               0 ****  **** 
    576  GLP           1726 ****               0 ****  **** 
    577  GLP           1729 ****               0 ****  **** 
    578  GLP           1732 ****               0 ****  **** 
    579  GLP           1735 ****               0 ****  **** 
    580  GLP           1738 ****               0 ****  **** 
    581  GLP           1741 ****               0 ****  **** 
    582  GLP           1744 ****               0 ****  **** 
    583  GLP           1747 ****               0 ****  **** 
    584  GLP           1750 ****               0 ****  **** 
    585  GLP           1753 ****               0 ****  **** 
    586  GLP           1756 ****               0 ****  **** 
    587  GLP           1759 ****               0 ****  **** 
    588  GLP           1762 ****               0 ****  **** 
    589  GLP           1765 ****               0 ****  **** 
    590  GLP           1768 ****               0 ****  **** 
    591  GLP           1771 ****               0 ****  **** 
    592  GLP           1774 ****               0 ****  **** 
    593  GLP           1777 ****               0 ****  **** 
    594  GLP           1780 ****               0 ****  **** 
    595  GLP           1783 ****               0 ****  **** 
    596  GLP           1786 ****               0 ****  **** 
    597  GLP           1789 ****               0 ****  **** 
    598  GLP           1792 ****               0 ****  **** 
    599  GLP           1795 ****               0 ****  **** 
    600  GLP           1798 ****               0 ****  **** 
    601  GLP           1801 ****               0 ****  **** 
    602  GLP           1804 ****               0 ****  **** 
    603  GLP           1807 ****               0 ****  **** 
    604  GLP           1810 ****               0 ****  **** 
    605  GLP           1813 ****               0 ****  **** 
    606  GLP           1816 ****               0 ****  **** 
    607  GLP           1819 ****               0 ****  **** 
    608  GLP           1822 ****               0 ****  **** 
    609  GLP           1825 ****               0 ****  **** 
    610  GLP           1828 ****               0 ****  **** 
    611  GLP           1831 ****               0 ****  **** 
    612  GLP           1834 ****               0 ****  **** 
    613  GLP           1837 ****               0 ****  **** 
    614  GLP           1840 ****               0 ****  **** 
    615  GLP           1843 ****               0 ****  **** 
    616  GLP           1846 ****               0 ****  **** 
    617  GLP           1849 ****               0 ****  **** 
    618  GLP           1852 ****               0 ****  **** 
    619  GLP           1855 ****               0 ****  **** 
    620  GLP           1858 ****               0 ****  **** 
    621  GLP           1861 ****               0 ****  **** 
    622  GLP           1864 ****               0 ****  **** 
    623  GLP           1867 ****               0 ****  **** 
    624  GLP           1870 ****               0 ****  **** 
    625  GLP           1873 ****               0 ****  **** 
    626  GLP           1876 ****               0 ****  **** 
    627  GLP           1879 ****               0 ****  **** 
    628  GLP           1882 ****               0 ****  **** 
    629  GLP           1885 ****               0 ****  **** 
    630  GLP           1888 ****               0 ****  **** 
    631  GLP           1891 ****               0 ****  **** 
    632  GLP           1894 ****               0 ****  **** 
    633  GLP           1897 ****               0 ****  **** 
    634  GLP           1900 ****               0 ****  **** 
    635  GLP           1903 ****               0 ****  **** 
    636  GLP           1906 ****               0 ****  **** 
    637  GLP           1909 ****               0 ****  **** 
    638  GLP           1912 ****               0 ****  **** 
    639  GLP           1915 ****               0 ****  **** 
    640  GLP           1918 ****               0 ****  **** 
    641  GLP           1921 ****               0 ****  **** 
    642  GLP           1924 ****               0 ****  **** 
    643  GLP           1927 ****               0 ****  **** 
    644  GLP           1930 ****               0 ****  **** 
    645  GLP           1933 ****               0 ****  **** 
    646  GLP           1936 ****               0 ****  **** 
    647  GLP           1939 ****               0 ****  **** 
    648  GLP           1942 ****               0 ****  **** 
    649  GLP           1945 ****               0 ****  **** 
    650  GLP           1948 ****               0 ****  **** 
    651  GLP           1951 ****               0 ****  **** 
    652  GLP           1954 ****               0 ****  **** 
    653  GLP           1957 ****               0 ****  **** 
    654  GLP           1960 ****               0 ****  **** 
    655  GLP           1963 ****               0 ****  **** 
    656  GLP           1966 ****               0 ****  **** 
    657  GLP           1969 ****               0 ****  **** 
    658  GLP           1972 ****               0 ****  **** 
    659  GLP           1975 ****               0 ****  **** 
    660  GLP           1978 ****               0 ****  **** 
    661  GLP           1981 ****               0 ****  **** 
    662  GLP           1984 ****               0 ****  **** 
    663  GLP           1987 ****               0 ****  **** 
    664  GLP           1990 ****               0 ****  **** 
    665  GLP           1993 ****               0 ****  **** 
    666  GLP           1996 ****               0 ****  **** 
    667  GLP           1999 ****               0 ****  **** 
    668  GLP           2002 ****               0 ****  **** 
    669  GLP           2005 ****               0 ****  **** 
    670  GLP           2008 ****               0 ****  **** 
    671  GLP           2011 ****               0 ****  **** 
    672  GLP           2014 ****               0 ****  **** 
    673  GLP           2017 ****               0 ****  **** 
    674  GLP           2020 ****               0 ****  **** 
    675  GLP           2023 ****               0 ****  **** 
    676  GLP           2026 ****               0 ****  **** 
    677  GLP           2029 ****               0 ****  **** 
    678  GLP           2032 ****               0 ****  **** 
    679  GLP           2035 ****               0 ****  **** 
    680  GLP           2038 ****               0 ****  **** 
    681  GLP           2041 ****               0 ****  **** 
    682  GLP           2044 ****               0 ****  **** 
    683  GLP           2047 ****               0 ****  **** 
    684  GLP           2050 ****               0 ****  **** 
    685  GLP           2053 ****               0 ****  **** 
    686  GLP           2056 ****               0 ****  **** 
    687  GLP           2059 ****               0 ****  **** 
    688  GLP           2062 ****               0 ****  **** 
    689  GLP           2065 ****               0 ****  **** 
    690  GLP           2068 ****               0 ****  **** 
    691  GLP           2071 ****               0 ****  **** 
    692  GLP           2074 ****               0 ****  **** 
    693  GLP           2077 ****               0 ****  **** 
    694  GLP           2080 ****               0 ****  **** 
    695  GLP           2083 ****               0 ****  **** 
    696  GLP           2086 ****               0 ****  **** 
    697  GLP           2089 ****               0 ****  **** 
    698  GLP           2092 ****               0 ****  **** 
    699  GLP           2095 ****               0 ****  **** 
    700  GLP           2098 ****               0 ****  **** 
    701  GLP           2101 ****               0 ****  **** 
    702  GLP           2104 ****               0 ****  **** 
    703  GLP           2107 ****               0 ****  **** 
    704  GLP           2110 ****               0 ****  **** 
    705  GLP           2113 ****               0 ****  **** 
    706  GLP           2116 ****               0 ****  **** 
    707  GLP           2119 ****               0 ****  **** 
    708  GLP           2122 ****               0 ****  **** 
    709  GLP           2125 ****               0 ****  **** 
    710  GLP           2128 ****               0 ****  **** 
    711  GLP           2131 ****               0 ****  **** 
    712  GLP           2134 ****               0 ****  **** 
    713  GLP           2137 ****               0 ****  **** 
    714  GLP           2140 ****               0 ****  **** 
    715  GLP           2143 ****               0 ****  **** 
    716  GLP           2146 ****               0 ****  **** 
    717  GLP           2149 ****               0 ****  **** 
    718  GLP           2152 ****               0 ****  **** 
    719  GLP           2155 ****               0 ****  **** 
    720  GLP           2158 ****               0 ****  **** 
    721  GLP           2161 ****               0 ****  **** 
    722  GLP           2164 ****               0 ****  **** 
    723  GLP           2167 ****               0 ****  **** 
    724  GLP           2170 ****               0 ****  **** 
    725  GLP           2173 ****               0 ****  **** 
    726  GLP           2176 ****               0 ****  **** 
    727  GLP           2179 ****               0 ****  **** 
    728  GLP           2182 ****               0 ****  **** 
    729  GLP           2185 ****               0 ****  **** 
    730  GLP           2188 ****               0 ****  **** 
    731  GLP           2191 ****               0 ****  **** 
    732  GLP           2194 ****               0 ****  **** 
    733  GLP           2197 ****               0 ****  **** 
    734  GLP           2200 ****               0 ****  **** 
    735  GLP           2203 ****               0 ****  **** 
    736  GLP           2206 ****               0 ****  **** 
    737  GLP           2209 ****               0 ****  **** 
    738  GLP           2212 ****               0 ****  **** 
    739  GLP           2215 ****               0 ****  **** 
    740  GLP           2218 ****               0 ****  **** 
    741  GLP           2221 ****               0 ****  **** 
    742  GLP           2224 ****               0 ****  **** 
    743  GLP           2227 ****               0 ****  **** 
    744  GLP           2230 ****               0 ****  **** 
    745  GLP           2233 ****               0 ****  **** 
    746  GLP           2236 ****               0 ****  **** 
    747  GLP           2239 ****               0 ****  **** 
    748  GLP           2242 ****               0 ****  **** 
    749  GLP           2245 ****               0 ****  **** 
    750  GLP           2248 ****               0 ****  **** 
    751  GLP           2251 ****               0 ****  **** 
    752  GLP           2254 ****               0 ****  **** 
    753  GLP           2257 ****               0 ****  **** 
    754  GLP           2260 ****               0 ****  **** 
    755  GLP           2263 ****               0 ****  **** 
    756  GLP           2266 ****               0 ****  **** 
    757  GLP           2269 ****               0 ****  **** 
    758  GLP           2272 ****               0 ****  **** 
    759  GLP           2275 ****               0 ****  **** 
    760  GLP           2278 ****               0 ****  **** 
    761  GLP           2281 ****               0 ****  **** 
    762  GLP           2284 ****               0 ****  **** 
    763  GLP           2287 ****               0 ****  **** 
    764  GLP           2290 ****               0 ****  **** 
    765  GLP           2293 ****               0 ****  **** 
    766  GLP           2296 ****               0 ****  **** 
    767  GLP           2299 ****               0 ****  **** 
    768  GLP           2302 ****               0 ****  **** 
    769  GLP           2305 ****               0 ****  **** 
    770  GLP           2308 ****               0 ****  **** 
    771  GLP           2311 ****               0 ****  **** 
    772  GLP           2314 ****               0 ****  **** 
    773  GLP           2317 ****               0 ****  **** 
    774  GLP           2320 ****               0 ****  **** 
    775  GLP           2323 ****               0 ****  **** 
    776  GLP           2326 ****               0 ****  **** 
    777  GLP           2329 ****               0 ****  **** 
    778  GLP           2332 ****               0 ****  **** 
    779  GLP           2335 ****               0 ****  **** 
    780  GLP           2338 ****               0 ****  **** 
    781  GLP           2341 ****               0 ****  **** 
    782  GLP           2344 ****               0 ****  **** 
    783  GLP           2347 ****               0 ****  **** 
    784  GLP           2350 ****               0 ****  **** 
    785  GLP           2353 ****               0 ****  **** 
    786  GLP           2356 ****               0 ****  **** 
    787  GLP           2359 ****               0 ****  **** 
    788  GLP           2362 ****               0 ****  **** 
    789  GLP           2365 ****               0 ****  **** 
    790  GLP           2368 ****               0 ****  **** 
    791  GLP           2371 ****               0 ****  **** 
    792  GLP           2374 ****               0 ****  **** 
    793  GLP           2377 ****               0 ****  **** 
    794  GLP           2380 ****               0 ****  **** 
    795  GLP           2383 ****               0 ****  **** 
    796  GLP           2386 ****               0 ****  **** 
    797  GLP           2389 ****               0 ****  **** 
    798  GLP           2392 ****               0 ****  **** 
    799  GLP           2395 ****               0 ****  **** 
    800  GLP           2398 ****               0 ****  **** 
    801  GLP           2401 ****               0 ****  **** 
    802  GLP           2404 ****               0 ****  **** 
    803  GLP           2407 ****               0 ****  **** 
    804  GLP           2410 ****               0 ****  **** 
    805  GLP           2413 ****               0 ****  **** 
    806  GLP           2416 ****               0 ****  **** 
    807  GLP           2419 ****               0 ****  **** 
    808  GLP           2422 ****               0 ****  **** 
    809  GLP           2425 ****               0 ****  **** 
    810  GLP           2428 ****               0 ****  **** 
    811  GLP           2431 ****               0 ****  **** 
    812  GLP           2434 ****               0 ****  **** 
    813  GLP           2437 ****               0 ****  **** 
    814  GLP           2440 ****               0 ****  **** 
    815  GLP           2443 ****               0 ****  **** 
    816  GLP           2446 ****               0 ****  **** 
    817  GLP           2449 ****               0 ****  **** 
    818  GLP           2452 ****               0 ****  **** 
    819  GLP           2455 ****               0 ****  **** 
    820  GLP           2458 ****               0 ****  **** 
    821  GLP           2461 ****               0 ****  **** 
    822  GLP           2464 ****               0 ****  **** 
    823  GLP           2467 ****               0 ****  **** 
    824  GLP           2470 ****               0 ****  **** 
    825  GLP           2473 ****               0 ****  **** 
    826  GLP           2476 ****               0 ****  **** 
    827  GLP           2479 ****               0 ****  **** 
    828  GLP           2482 ****               0 ****  **** 
    829  GLP           2485 ****               0 ****  **** 
    830  GLP           2488 ****               0 ****  **** 
    831  GLP           2491 ****               0 ****  **** 
    832  GLP           2494 ****               0 ****  **** 
    833  GLP           2497 ****               0 ****  **** 
    834  GLP           2500 ****               0 ****  **** 
    835  GLP           2503 ****               0 ****  **** 
    836  GLP           2506 ****               0 ****  **** 
    837  GLP           2509 ****               0 ****  **** 
    838  GLP           2512 ****               0 ****  **** 
    839  GLP           2515 ****               0 ****  **** 
    840  GLP           2518 ****               0 ****  **** 
    841  GLP           2521 ****               0 ****  **** 
    842  GLP           2524 ****               0 ****  **** 
    843  GLP           2527 ****               0 ****  **** 
    844  GLP           2530 ****               0 ****  **** 
    845  GLP           2533 ****               0 ****  **** 
    846  GLP           2536 ****               0 ****  **** 
    847  GLP           2539 ****               0 ****  **** 
    848  GLP           2542 ****               0 ****  **** 
    849  GLP           2545 ****               0 ****  **** 
    850  GLP           2548 ****               0 ****  **** 
    851  GLP           2551 ****               0 ****  **** 
    852  GLP           2554 ****               0 ****  **** 
    853  GLP           2557 ****               0 ****  **** 
    854  GLP           2560 ****               0 ****  **** 
    855  GLP           2563 ****               0 ****  **** 
    856  GLP           2566 ****               0 ****  **** 
    857  GLP           2569 ****               0 ****  **** 
    858  GLP           2572 ****               0 ****  **** 
    859  GLP           2575 ****               0 ****  **** 
    860  GLP           2578 ****               0 ****  **** 
    861  GLP           2581 ****               0 ****  **** 
    862  GLP           2584 ****               0 ****  **** 
    863  GLP           2587 ****               0 ****  **** 
    864  GLP           2590 ****               0 ****  **** 
    865  GLP           2593 ****               0 ****  **** 
    866  GLP           2596 ****               0 ****  **** 
    867  GLP           2599 ****               0 ****  **** 
    868  GLP           2602 ****               0 ****  **** 
    869  GLP           2605 ****               0 ****  **** 
    870  GLP           2608 ****               0 ****  **** 
    871  GLP           2611 ****               0 ****  **** 
    872  GLP           2614 ****               0 ****  **** 
    873  GLP           2617 ****               0 ****  **** 
    874  GLP           2620 ****               0 ****  **** 
    875  GLP           2623 ****               0 ****  **** 
    876  GLP           2626 ****               0 ****  **** 
    877  GLP           2629 ****               0 ****  **** 
    878  GLP           2632 ****               0 ****  **** 
    879  GLP           2635 ****               0 ****  **** 
    880  GLP           2638 ****               0 ****  **** 
    881  GLP           2641 ****               0 ****  **** 
    882  GLP           2644 ****               0 ****  **** 
    883  GLP           2647 ****               0 ****  **** 
    884  GLP           2650 ****               0 ****  **** 
    885  GLP           2653 ****               0 ****  **** 
    886  GLP           2656 ****               0 ****  **** 
    887  GLP           2659 ****               0 ****  **** 
    888  GLP           2662 ****               0 ****  **** 
    889  GLP           2665 ****               0 ****  **** 
    890  GLP           2668 ****               0 ****  **** 
    891  GLP           2671 ****               0 ****  **** 
    892  GLP           2674 ****               0 ****  **** 
    893  GLP           2677 ****               0 ****  **** 
    894  GLP           2680 ****               0 ****  **** 
    895  GLP           2683 ****               0 ****  **** 
    896  GLP           2686 ****               0 ****  **** 
    897  GLP           2689 ****               0 ****  **** 
    898  GLP           2692 ****               0 ****  **** 
    899  GLP           2695 ****               0 ****  **** 
    900  GLP           2698 ****               0 ****  **** 
    901  GLP           2701 ****               0 ****  **** 
    902  GLP           2704 ****               0 ****  **** 
    903  GLP           2707 ****               0 ****  **** 
    904  GLP           2710 ****               0 ****  **** 
    905  GLP           2713 ****               0 ****  **** 
    906  GLP           2716 ****               0 ****  **** 
    907  GLP           2719 ****               0 ****  **** 
    908  GLP           2722 ****               0 ****  **** 
    909  GLP           2725 ****               0 ****  **** 
    910  GLP           2728 ****               0 ****  **** 
    911  GLP           2731 ****               0 ****  **** 
    912  GLP           2734 ****               0 ****  **** 
    913  GLP           2737 ****               0 ****  **** 
    914  GLP           2740 ****               0 ****  **** 
    915  GLP           2743 ****               0 ****  **** 
    916  GLP           2746 ****               0 ****  **** 
    917  GLP           2749 ****               0 ****  **** 
    918  GLP           2752 ****               0 ****  **** 
    919  GLP           2755 ****               0 ****  **** 
    920  GLP           2758 ****               0 ****  **** 
    921  GLP           2761 ****               0 ****  **** 
    922  GLP           2764 ****               0 ****  **** 
    923  GLP           2767 ****               0 ****  **** 
    924  GLP           2770 ****               0 ****  **** 
    925  GLP           2773 ****               0 ****  **** 
    926  GLP           2776 ****               0 ****  **** 
    927  GLP           2779 ****               0 ****  **** 
    928  GLP           2782 ****               0 ****  **** 
    929  GLP           2785 ****               0 ****  **** 
    930  GLP           2788 ****               0 ****  **** 
    931  GLP           2791 ****               0 ****  **** 
    932  GLP           2794 ****               0 ****  **** 
    933  GLP           2797 ****               0 ****  **** 
    934  GLP           2800 ****               0 ****  **** 
    935  GLP           2803 ****               0 ****  **** 
    936  GLP           2806 ****               0 ****  **** 
    937  GLP           2809 ****               0 ****  **** 
    938  GLP           2812 ****               0 ****  **** 
    939  GLP           2815 ****               0 ****  **** 
    940  GLP           2818 ****               0 ****  **** 
    941  GLP           2821 ****               0 ****  **** 
    942  GLP           2824 ****               0 ****  **** 
    943  GLP           2827 ****               0 ****  **** 
    944  GLP           2830 ****               0 ****  **** 
    945  GLP           2833 ****               0 ****  **** 
    946  GLP           2836 ****               0 ****  **** 
    947  GLP           2839 ****               0 ****  **** 
    948  GLP           2842 ****               0 ****  **** 
    949  GLP           2845 ****               0 ****  **** 
    950  GLP           2848 ****               0 ****  **** 
    951  GLP           2851 ****               0 ****  **** 
    952  GLP           2854 ****               0 ****  **** 
    953  GLP           2857 ****               0 ****  **** 
    954  GLP           2860 ****               0 ****  **** 
    955  GLP           2863 ****               0 ****  **** 
    956  GLP           2866 ****               0 ****  **** 
    957  GLP           2869 ****               0 ****  **** 
    958  GLP           2872 ****               0 ****  **** 
    959  GLP           2875 ****               0 ****  **** 
    960  GLP           2878 ****               0 ****  **** 
    961  GLP           2881 ****               0 ****  **** 
    962  GLP           2884 ****               0 ****  **** 
    963  GLP           2887 ****               0 ****  **** 
    964  GLP           2890 ****               0 ****  **** 
    965  GLP           2893 ****               0 ****  **** 
    966  GLP           2896 ****               0 ****  **** 
    967  GLP           2899 ****               0 ****  **** 
    968  GLP           2902 ****               0 ****  **** 
    969  GLP           2905 ****               0 ****  **** 
    970  GLP           2908 ****               0 ****  **** 
    971  GLP           2911 ****               0 ****  **** 
    972  GLP           2914 ****               0 ****  **** 
    973  GLP           2917 ****               0 ****  **** 
    974  GLP           2920 ****               0 ****  **** 
    975  GLP           2923 ****               0 ****  **** 
    976  GLP           2926 ****               0 ****  **** 
    977  GLP           2929 ****               0 ****  **** 
    978  GLP           2932 ****               0 ****  **** 
    979  GLP           2935 ****               0 ****  **** 
    980  GLP           2938 ****               0 ****  **** 
    981  GLP           2941 ****               0 ****  **** 
    982  GLP           2944 ****               0 ****  **** 
    983  GLP           2947 ****               0 ****  **** 
    984  GLP           2950 ****               0 ****  **** 
    985  GLP           2953 ****               0 ****  **** 
    986  GLP           2956 ****               0 ****  **** 
    987  GLP           2959 ****               0 ****  **** 
    988  GLP           2962 ****               0 ****  **** 
    989  GLP           2965 ****               0 ****  **** 
    990  GLP           2968 ****               0 ****  **** 
    991  GLP           2971 ****               0 ****  **** 
    992  GLP           2974 ****               0 ****  **** 
    993  GLP           2977 ****               0 ****  **** 
    994  GLP           2980 ****               0 ****  **** 
    995  GLP           2983 ****               0 ****  **** 
    996  GLP           2986 ****               0 ****  **** 
    997  GLP           2989 ****               0 ****  **** 
    998  GLP           2992 ****               0 ****  **** 
    999  GLP           2995 ****               0 ****  **** 
   1000  GLP           2998 ****               0 ****  **** 
   1001  GLP           3001 ****               0 ****  **** 
   1002  GLP           3004 ****               0 ****  **** 
   1003  GLP           3007 ****               0 ****  **** 
   1004  GLP           3010 ****               0 ****  **** 
   1005  GLP           3013 ****               0 ****  **** 
   1006  GLP           3016 ****               0 ****  **** 
   1007  GLP           3019 ****               0 ****  **** 
   1008  GLP           3022 ****               0 ****  **** 
   1009  GLP           3025 ****               0 ****  **** 
   1010  GLP           3028 ****               0 ****  **** 
   1011  GLP           3031 ****               0 ****  **** 
   1012  GLP           3034 ****               0 ****  **** 
   1013  GLP           3037 ****               0 ****  **** 
   1014  GLP           3040 ****               0 ****  **** 
   1015  GLP           3043 ****               0 ****  **** 
   1016  GLP           3046 ****               0 ****  **** 
   1017  GLP           3049 ****               0 ****  **** 
   1018  GLP           3052 ****               0 ****  **** 
   1019  GLP           3055 ****               0 ****  **** 
   1020  GLP           3058 ****               0 ****  **** 
   1021  GLP           3061 ****               0 ****  **** 
   1022  GLP           3064 ****               0 ****  **** 
   1023  GLP           3067 ****               0 ****  **** 
   1024  GLP           3070 ****               0 ****  **** 
   1025  GLP           3073 ****               0 ****  **** 
   1026  GLP           3076 ****               0 ****  **** 
   1027  GLP           3079 ****               0 ****  **** 
   1028  GLP           3082 ****               0 ****  **** 
   1029  GLP           3085 ****               0 ****  **** 
   1030  GLP           3088 ****               0 ****  **** 
   1031  GLP           3091 ****               0 ****  **** 
   1032  GLP           3094 ****               0 ****  **** 
   1033  GLP           3097 ****               0 ****  **** 
   1034  GLP           3100 ****               0 ****  **** 
   1035  GLP           3103 ****               0 ****  **** 
   1036  GLP           3106 ****               0 ****  **** 
   1037  GLP           3109 ****               0 ****  **** 
   1038  GLP           3112 ****               0 ****  **** 
   1039  GLP           3115 ****               0 ****  **** 
   1040  GLP           3118 ****               0 ****  **** 
   1041  GLP           3121 ****               0 ****  **** 
   1042  GLP           3124 ****               0 ****  **** 
   1043  GLP           3127 ****               0 ****  **** 
   1044  GLP           3130 ****               0 ****  **** 
   1045  GLP           3133 ****               0 ****  **** 
   1046  GLP           3136 ****               0 ****  **** 
   1047  GLP           3139 ****               0 ****  **** 
   1048  GLP           3142 ****               0 ****  **** 
   1049  GLP           3145 ****               0 ****  **** 
   1050  GLP           3148 ****               0 ****  **** 
   1051  GLP           3151 ****               0 ****  **** 
   1052  GLP           3154 ****               0 ****  **** 
   1053  GLP           3157 ****               0 ****  **** 
   1054  GLP           3160 ****               0 ****  **** 
   1055  GLP           3163 ****               0 ****  **** 
   1056  GLP           3166 ****               0 ****  **** 
   1057  GLP           3169 ****               0 ****  **** 
   1058  GLP           3172 ****               0 ****  **** 
   1059  GLP           3175 ****               0 ****  **** 
   1060  GLP           3178 ****               0 ****  **** 
   1061  GLP           3181 ****               0 ****  **** 
   1062  GLP           3184 ****               0 ****  **** 
   1063  GLP           3187 ****               0 ****  **** 
   1064  GLP           3190 ****               0 ****  **** 
   1065  GLP           3193 ****               0 ****  **** 
   1066  GLP           3196 ****               0 ****  **** 
   1067  GLP           3199 ****               0 ****  **** 
   1068  GLP           3202 ****               0 ****  **** 
   1069  GLP           3205 ****               0 ****  **** 
   1070  GLP           3208 ****               0 ****  **** 
   1071  GLP           3211 ****               0 ****  **** 
   1072  GLP           3214 ****               0 ****  **** 
   1073  GLP           3217 ****               0 ****  **** 
   1074  GLP           3220 ****               0 ****  **** 
   1075  GLP           3223 ****               0 ****  **** 
   1076  GLP           3226 ****               0 ****  **** 
   1077  GLP           3229 ****               0 ****  **** 
   1078  GLP           3232 ****               0 ****  **** 
   1079  GLP           3235 ****               0 ****  **** 
   1080  GLP           3238 ****               0 ****  **** 
   1081  GLP           3241 ****               0 ****  **** 
   1082  GLP           3244 ****               0 ****  **** 
   1083  GLP           3247 ****               0 ****  **** 
   1084  GLP           3250 ****               0 ****  **** 
   1085  GLP           3253 ****               0 ****  **** 
   1086  GLP           3256 ****               0 ****  **** 
   1087  GLP           3259 ****               0 ****  **** 
   1088  GLP           3262 ****               0 ****  **** 
   1089  GLP           3265 ****               0 ****  **** 
   1090  GLP           3268 ****               0 ****  **** 
   1091  GLP           3271 ****               0 ****  **** 
   1092  GLP           3274 ****               0 ****  **** 
   1093  GLP           3277 ****               0 ****  **** 
   1094  GLP           3280 ****               0 ****  **** 
   1095  GLP           3283 ****               0 ****  **** 
   1096  GLP           3286 ****               0 ****  **** 
   1097  GLP           3289 ****               0 ****  **** 
   1098  GLP           3292 ****               0 ****  **** 
   1099  GLP           3295 ****               0 ****  **** 
   1100  GLP           3298 ****               0 ****  **** 
   1101  GLP           3301 ****               0 ****  **** 
   1102  GLP           3304 ****               0 ****  **** 
   1103  GLP           3307 ****               0 ****  **** 
   1104  GLP           3310 ****               0 ****  **** 
   1105  GLP           3313 ****               0 ****  **** 
   1106  GLP           3316 ****               0 ****  **** 
   1107  GLP           3319 ****               0 ****  **** 
   1108  GLP           3322 ****               0 ****  **** 
   1109  GLP           3325 ****               0 ****  **** 
   1110  GLP           3328 ****               0 ****  **** 
   1111  GLP           3331 ****               0 ****  **** 
   1112  GLP           3334 ****               0 ****  **** 
   1113  GLP           3337 ****               0 ****  **** 
   1114  GLP           3340 ****               0 ****  **** 
   1115  GLP           3343 ****               0 ****  **** 
   1116  GLP           3346 ****               0 ****  **** 
   1117  GLP           3349 ****               0 ****  **** 
   1118  GLP           3352 ****               0 ****  **** 
   1119  GLP           3355 ****               0 ****  **** 
   1120  GLP           3358 ****               0 ****  **** 
   1121  GLP           3361 ****               0 ****  **** 
   1122  GLP           3364 ****               0 ****  **** 
   1123  GLP           3367 ****               0 ****  **** 
   1124  GLP           3370 ****               0 ****  **** 
   1125  GLP           3373 ****               0 ****  **** 
   1126  GLP           3376 ****               0 ****  **** 
   1127  GLP           3379 ****               0 ****  **** 
   1128  GLP           3382 ****               0 ****  **** 
   1129  GLP           3385 ****               0 ****  **** 
   1130  GLP           3388 ****               0 ****  **** 
   1131  GLP           3391 ****               0 ****  **** 
   1132  GLP           3394 ****               0 ****  **** 
   1133  GLP           3397 ****               0 ****  **** 
   1134  GLP           3400 ****               0 ****  **** 
   1135  GLP           3403 ****               0 ****  **** 
   1136  GLP           3406 ****               0 ****  **** 
   1137  GLP           3409 ****               0 ****  **** 
   1138  GLP           3412 ****               0 ****  **** 
   1139  GLP           3415 ****               0 ****  **** 
   1140  GLP           3418 ****               0 ****  **** 
   1141  GLP           3421 ****               0 ****  **** 
   1142  GLP           3424 ****               0 ****  **** 
   1143  GLP           3427 ****               0 ****  **** 
   1144  GLP           3430 ****               0 ****  **** 
   1145  GLP           3433 ****               0 ****  **** 
   1146  GLP           3436 ****               0 ****  **** 
   1147  GLP           3439 ****               0 ****  **** 
   1148  GLP           3442 ****               0 ****  **** 
   1149  GLP           3445 ****               0 ****  **** 
   1150  GLP           3448 ****               0 ****  **** 
   1151  GLP           3451 ****               0 ****  **** 
   1152  GLP           3454 ****               0 ****  **** 
   1153  GLP           3457 ****               0 ****  **** 
   1154  GLP           3460 ****               0 ****  **** 
   1155  GLP           3463 ****               0 ****  **** 
   1156  GLP           3466 ****               0 ****  **** 
   1157  GLP           3469 ****               0 ****  **** 
   1158  GLP           3472 ****               0 ****  **** 
   1159  GLP           3475 ****               0 ****  **** 
   1160  GLP           3478 ****               0 ****  **** 
   1161  GLP           3481 ****               0 ****  **** 
   1162  GLP           3484 ****               0 ****  **** 
   1163  GLP           3487 ****               0 ****  **** 
   1164  GLP           3490 ****               0 ****  **** 
   1165  GLP           3493 ****               0 ****  **** 
   1166  GLP           3496 ****               0 ****  **** 
   1167  GLP           3499 ****               0 ****  **** 
   1168  GLP           3502 ****               0 ****  **** 
   1169  GLP           3505 ****               0 ****  **** 
   1170  GLP           3508 ****               0 ****  **** 
   1171  GLP           3511 ****               0 ****  **** 
   1172  GLP           3514 ****               0 ****  **** 
   1173  GLP           3517 ****               0 ****  **** 
   1174  GLP           3520 ****               0 ****  **** 
   1175  GLP           3523 ****               0 ****  **** 
   1176  GLP           3526 ****               0 ****  **** 
   1177  GLP           3529 ****               0 ****  **** 
   1178  GLP           3532 ****               0 ****  **** 
   1179  GLP           3535 ****               0 ****  **** 
   1180  GLP           3538 ****               0 ****  **** 
   1181  GLP           3541 ****               0 ****  **** 
   1182  GLP           3544 ****               0 ****  **** 
   1183  GLP           3547 ****               0 ****  **** 
   1184  GLP           3550 ****               0 ****  **** 
   1185  GLP           3553 ****               0 ****  **** 
   1186  GLP           3556 ****               0 ****  **** 
   1187  GLP           3559 ****               0 ****  **** 
   1188  GLP           3562 ****               0 ****  **** 
   1189  GLP           3565 ****               0 ****  **** 
   1190  GLP           3568 ****               0 ****  **** 
   1191  GLP           3571 ****               0 ****  **** 
   1192  GLP           3574 ****               0 ****  **** 
   1193  GLP           3577 ****               0 ****  **** 
   1194  GLP           3580 ****               0 ****  **** 
   1195  GLP           3583 ****               0 ****  **** 
   1196  GLP           3586 ****               0 ****  **** 
   1197  GLP           3589 ****               0 ****  **** 
   1198  GLP           3592 ****               0 ****  **** 
   1199  GLP           3595 ****               0 ****  **** 
   1200  GLP           3598 ****               0 ****  **** 
   1201  GLP           3601 ****               0 ****  **** 
   1202  GLP           3604 ****               0 ****  **** 
   1203  GLP           3607 ****               0 ****  **** 
   1204  GLP           3610 ****               0 ****  **** 
   1205  GLP           3613 ****               0 ****  **** 
   1206  GLP           3616 ****               0 ****  **** 
   1207  GLP           3619 ****               0 ****  **** 
   1208  GLP           3622 ****               0 ****  **** 
   1209  GLP           3625 ****               0 ****  **** 
   1210  GLP           3628 ****               0 ****  **** 
   1211  GLP           3631 ****               0 ****  **** 
   1212  GLP           3634 ****               0 ****  **** 
   1213  GLP           3637 ****               0 ****  **** 
   1214  GLP           3640 ****               0 ****  **** 
   1215  GLP           3643 ****               0 ****  **** 
   1216  GLP           3646 ****               0 ****  **** 
   1217  GLP           3649 ****               0 ****  **** 
   1218  GLP           3652 ****               0 ****  **** 
   1219  GLP           3655 ****               0 ****  **** 
   1220  GLP           3658 ****               0 ****  **** 
   1221  GLP           3661 ****               0 ****  **** 
   1222  GLP           3664 ****               0 ****  **** 
   1223  GLP           3667 ****               0 ****  **** 
   1224  GLP           3670 ****               0 ****  **** 
   1225  GLP           3673 ****               0 ****  **** 
   1226  GLP           3676 ****               0 ****  **** 
   1227  GLP           3679 ****               0 ****  **** 
   1228  GLP           3682 ****               0 ****  **** 
   1229  GLP           3685 ****               0 ****  **** 
   1230  GLP           3688 ****               0 ****  **** 
   1231  GLP           3691 ****               0 ****  **** 
   1232  GLP           3694 ****               0 ****  **** 
   1233  GLP           3697 ****               0 ****  **** 
   1234  GLP           3700 ****               0 ****  **** 
   1235  GLP           3703 ****               0 ****  **** 
   1236  GLP           3706 ****               0 ****  **** 
   1237  GLP           3709 ****               0 ****  **** 
   1238  GLP           3712 ****               0 ****  **** 
   1239  GLP           3715 ****               0 ****  **** 
   1240  GLP           3718 ****               0 ****  **** 
   1241  GLP           3721 ****               0 ****  **** 
   1242  GLP           3724 ****               0 ****  **** 
   1243  GLP           3727 ****               0 ****  **** 
   1244  GLP           3730 ****               0 ****  **** 
   1245  GLP           3733 ****               0 ****  **** 
   1246  GLP           3736 ****               0 ****  **** 
   1247  GLP           3739 ****               0 ****  **** 
   1248  GLP           3742 ****               0 ****  **** 
   1249  GLP           3745 ****               0 ****  **** 
   1250  GLP           3748 ****               0 ****  **** 
   1251  GLP           3751 ****               0 ****  **** 
   1252  GLP           3754 ****               0 ****  **** 
   1253  GLP           3757 ****               0 ****  **** 
   1254  GLP           3760 ****               0 ****  **** 
   1255  GLP           3763 ****               0 ****  **** 
   1256  GLP           3766 ****               0 ****  **** 
   1257  GLP           3769 ****               0 ****  **** 
   1258  GLP           3772 ****               0 ****  **** 
   1259  GLP           3775 ****               0 ****  **** 
   1260  GLP           3778 ****               0 ****  **** 
   1261  GLP           3781 ****               0 ****  **** 
   1262  GLP           3784 ****               0 ****  **** 
   1263  GLP           3787 ****               0 ****  **** 
   1264  GLP           3790 ****               0 ****  **** 
   1265  GLP           3793 ****               0 ****  **** 
   1266  GLP           3796 ****               0 ****  **** 
   1267  GLP           3799 ****               0 ****  **** 
   1268  GLP           3802 ****               0 ****  **** 
   1269  GLP           3805 ****               0 ****  **** 
   1270  GLP           3808 ****               0 ****  **** 
   1271  GLP           3811 ****               0 ****  **** 
   1272  GLP           3814 ****               0 ****  **** 
   1273  GLP           3817 ****               0 ****  **** 
   1274  GLP           3820 ****               0 ****  **** 
   1275  GLP           3823 ****               0 ****  **** 
   1276  GLP           3826 ****               0 ****  **** 
   1277  GLP           3829 ****               0 ****  **** 
   1278  GLP           3832 ****               0 ****  **** 
   1279  GLP           3835 ****               0 ****  **** 
   1280  GLP           3838 ****               0 ****  **** 
   1281  GLP           3841 ****               0 ****  **** 
   1282  GLP           3844 ****               0 ****  **** 
   1283  GLP           3847 ****               0 ****  **** 
   1284  GLP           3850 ****               0 ****  **** 
   1285  GLP           3853 ****               0 ****  **** 
   1286  GLP           3856 ****               0 ****  **** 
   1287  GLP           3859 ****               0 ****  **** 
   1288  GLP           3862 ****               0 ****  **** 
   1289  GLP           3865 ****               0 ****  **** 
   1290  GLP           3868 ****               0 ****  **** 
   1291  GLP           3871 ****               0 ****  **** 
   1292  GLP           3874 ****               0 ****  **** 
   1293  GLP           3877 ****               0 ****  **** 
   1294  GLP           3880 ****               0 ****  **** 
   1295  GLP           3883 ****               0 ****  **** 
   1296  GLP           3886 ****               0 ****  **** 
   1297  GLP           3889 ****               0 ****  **** 
   1298  GLP           3892 ****               0 ****  **** 
   1299  GLP           3895 ****               0 ****  **** 
   1300  GLP           3898 ****               0 ****  **** 
   1301  GLP           3901 ****               0 ****  **** 
   1302  GLP           3904 ****               0 ****  **** 
   1303  GLP           3907 ****               0 ****  **** 
   1304  GLP           3910 ****               0 ****  **** 
   1305  GLP           3913 ****               0 ****  **** 
   1306  GLP           3916 ****               0 ****  **** 
   1307  GLP           3919 ****               0 ****  **** 
   1308  GLP           3922 ****               0 ****  **** 
   1309  GLP           3925 ****               0 ****  **** 
   1310  GLP           3928 ****               0 ****  **** 
   1311  GLP           3931 ****               0 ****  **** 
   1312  GLP           3934 ****               0 ****  **** 
   1313  GLP           3937 ****               0 ****  **** 
   1314  GLP           3940 ****               0 ****  **** 
   1315  GLP           3943 ****               0 ****  **** 
   1316  GLP           3946 ****               0 ****  **** 
   1317  GLP           3949 ****               0 ****  **** 
   1318  GLP           3952 ****               0 ****  **** 
   1319  GLP           3955 ****               0 ****  **** 
   1320  GLP           3958 ****               0 ****  **** 
   1321  GLP           3961 ****               0 ****  **** 
   1322  GLP           3964 ****               0 ****  **** 
   1323  GLP           3967 ****               0 ****  **** 
   1324  GLP           3970 ****               0 ****  **** 
   1325  GLP           3973 ****               0 ****  **** 
   1326  GLP           3976 ****               0 ****  **** 
   1327  GLP           3979 ****               0 ****  **** 
   1328  GLP           3982 ****               0 ****  **** 
   1329  GLP           3985 ****               0 ****  **** 
   1330  GLP           3988 ****               0 ****  **** 
   1331  GLP           3991 ****               0 ****  **** 
   1332  GLP           3994 ****               0 ****  **** 
   1333  GLP           3997 ****               0 ****  **** 
   1334  GLP           4000 ****               0 ****  **** 
   1335  GLP           4003 ****               0 ****  **** 
   1336  GLP           4006 ****               0 ****  **** 
   1337  GLP           4009 ****               0 ****  **** 
   1338  GLP           4012 ****               0 ****  **** 
   1339  GLP           4015 ****               0 ****  **** 
   1340  GLP           4018 ****               0 ****  **** 
   1341  GLP           4021 ****               0 ****  **** 
   1342  GLP           4024 ****               0 ****  **** 
   1343  GLP           4027 ****               0 ****  **** 
   1344  GLP           4030 ****               0 ****  **** 
   1345  GLP           4033 ****               0 ****  **** 
   1346  GLP           4036 ****               0 ****  **** 
   1347  GLP           4039 ****               0 ****  **** 
   1348  GLP           4042 ****               0 ****  **** 
   1349  GLP           4045 ****               0 ****  **** 
   1350  GLP           4048 ****               0 ****  **** 
   1351  GLP           4051 ****               0 ****  **** 
   1352  GLP           4054 ****               0 ****  **** 
   1353  GLP           4057 ****               0 ****  **** 
   1354  GLP           4060 ****               0 ****  **** 
   1355  GLP           4063 ****               0 ****  **** 
   1356  GLP           4066 ****               0 ****  **** 
   1357  GLP           4069 ****               0 ****  **** 
   1358  GLP           4072 ****               0 ****  **** 
   1359  GLP           4075 ****               0 ****  **** 
   1360  GLP           4078 ****               0 ****  **** 
   1361  GLP           4081 ****               0 ****  **** 
   1362  GLP           4084 ****               0 ****  **** 
   1363  GLP           4087 ****               0 ****  **** 
   1364  GLP           4090 ****               0 ****  **** 
   1365  GLP           4093 ****               0 ****  **** 
   1366  GLP           4096 ****               0 ****  **** 
   1367  GLP           4099 ****               0 ****  **** 
   1368  GLP           4102 ****               0 ****  **** 
   1369  GLP           4105 ****               0 ****  **** 
   1370  GLP           4108 ****               0 ****  **** 
   1371  GLP           4111 ****               0 ****  **** 
   1372  GLP           4114 ****               0 ****  **** 
   1373  GLP           4117 ****               0 ****  **** 
   1374  GLP           4120 ****               0 ****  **** 
   1375  GLP           4123 ****               0 ****  **** 
   1376  GLP           4126 ****               0 ****  **** 
   1377  GLP           4129 ****               0 ****  **** 
   1378  GLP           4132 ****               0 ****  **** 
   1379  GLP           4135 ****               0 ****  **** 
   1380  GLP           4138 ****               0 ****  **** 
   1381  GLP           4141 ****               0 ****  **** 
   1382  GLP           4144 ****               0 ****  **** 
   1383  GLP           4147 ****               0 ****  **** 
   1384  GLP           4150 ****               0 ****  **** 
   1385  GLP           4153 ****               0 ****  **** 
   1386  GLP           4156 ****               0 ****  **** 
   1387  GLP           4159 ****               0 ****  **** 
   1388  GLP           4162 ****               0 ****  **** 
   1389  GLP           4165 ****               0 ****  **** 
   1390  GLP           4168 ****               0 ****  **** 
   1391  GLP           4171 ****               0 ****  **** 
   1392  GLP           4174 ****               0 ****  **** 
   1393  GLP           4177 ****               0 ****  **** 
   1394  GLP           4180 ****               0 ****  **** 
   1395  GLP           4183 ****               0 ****  **** 
   1396  GLP           4186 ****               0 ****  **** 
   1397  GLP           4189 ****               0 ****  **** 
   1398  GLP           4192 ****               0 ****  **** 
   1399  GLP           4195 ****               0 ****  **** 
   1400  GLP           4198 ****               0 ****  **** 
   1401  GLP           4201 ****               0 ****  **** 
   1402  GLP           4204 ****               0 ****  **** 
   1403  GLP           4207 ****               0 ****  **** 
   1404  GLP           4210 ****               0 ****  **** 
   1405  GLP           4213 ****               0 ****  **** 
   1406  GLP           4216 ****               0 ****  **** 
   1407  GLP           4219 ****               0 ****  **** 
   1408  GLP           4222 ****               0 ****  **** 
   1409  GLP           4225 ****               0 ****  **** 
   1410  GLP           4228 ****               0 ****  **** 
   1411  GLP           4231 ****               0 ****  **** 
   1412  GLP           4234 ****               0 ****  **** 
   1413  GLP           4237 ****               0 ****  **** 
   1414  GLP           4240 ****               0 ****  **** 
   1415  GLP           4243 ****               0 ****  **** 
   1416  GLP           4246 ****               0 ****  **** 
   1417  GLP           4249 ****               0 ****  **** 
   1418  GLP           4252 ****               0 ****  **** 
   1419  GLP           4255 ****               0 ****  **** 
   1420  GLP           4258 ****               0 ****  **** 
   1421  GLP           4261 ****               0 ****  **** 
   1422  GLP           4264 ****               0 ****  **** 
   1423  GLP           4267 ****               0 ****  **** 
   1424  GLP           4270 ****               0 ****  **** 
   1425  GLP           4273 ****               0 ****  **** 
   1426  GLP           4276 ****               0 ****  **** 
   1427  GLP           4279 ****               0 ****  **** 
   1428  GLP           4282 ****               0 ****  **** 
   1429  GLP           4285 ****               0 ****  **** 
   1430  GLP           4288 ****               0 ****  **** 
   1431  GLP           4291 ****               0 ****  **** 
   1432  GLP           4294 ****               0 ****  **** 
   1433  GLP           4297 ****               0 ****  **** 
   1434  GLP           4300 ****               0 ****  **** 
   1435  GLP           4303 ****               0 ****  **** 
   1436  GLP           4306 ****               0 ****  **** 
   1437  GLP           4309 ****               0 ****  **** 
   1438  GLP           4312 ****               0 ****  **** 
   1439  GLP           4315 ****               0 ****  **** 
   1440  GLP           4318 ****               0 ****  **** 
   1441  GLP           4321 ****               0 ****  **** 
   1442  GLP           4324 ****               0 ****  **** 
   1443  GLP           4327 ****               0 ****  **** 
   1444  GLP           4330 ****               0 ****  **** 
   1445  GLP           4333 ****               0 ****  **** 
   1446  GLP           4336 ****               0 ****  **** 
   1447  GLP           4339 ****               0 ****  **** 
   1448  GLP           4342 ****               0 ****  **** 
   1449  GLP           4345 ****               0 ****  **** 
   1450  GLP           4348 ****               0 ****  **** 
   1451  GLP           4351 ****               0 ****  **** 
   1452  GLP           4354 ****               0 ****  **** 
   1453  GLP           4357 ****               0 ****  **** 
   1454  GLP           4360 ****               0 ****  **** 
   1455  GLP           4363 ****               0 ****  **** 
   1456  GLP           4366 ****               0 ****  **** 
   1457  GLP           4369 ****               0 ****  **** 
   1458  GLP           4372 ****               0 ****  **** 
   1459  GLP           4375 ****               0 ****  **** 
   1460  GLP           4378 ****               0 ****  **** 
   1461  GLP           4381 ****               0 ****  **** 
   1462  GLP           4384 ****               0 ****  **** 
   1463  GLP           4387 ****               0 ****  **** 
   1464  GLP           4390 ****               0 ****  **** 
   1465  GLP           4393 ****               0 ****  **** 
   1466  GLP           4396 ****               0 ****  **** 
   1467  GLP           4399 ****               0 ****  **** 
   1468  GLP           4402 ****               0 ****  **** 
   1469  GLP           4405 ****               0 ****  **** 
   1470  GLP           4408 ****               0 ****  **** 
   1471  GLP           4411 ****               0 ****  **** 
   1472  GLP           4414 ****               0 ****  **** 
   1473  GLP           4417 ****               0 ****  **** 
   1474  GLP           4420 ****               0 ****  **** 
   1475  GLP           4423 ****               0 ****  **** 
   1476  GLP           4426 ****               0 ****  **** 
   1477  GLP           4429 ****               0 ****  **** 
   1478  GLP           4432 ****               0 ****  **** 
   1479  GLP           4435 ****               0 ****  **** 
   1480  GLP           4438 ****               0 ****  **** 
   1481  GLP           4441 ****               0 ****  **** 
   1482  GLP           4444 ****               0 ****  **** 
   1483  GLP           4447 ****               0 ****  **** 
   1484  GLP           4450 ****               0 ****  **** 
   1485  GLP           4453 ****               0 ****  **** 
   1486  GLP           4456 ****               0 ****  **** 
   1487  GLP           4459 ****               0 ****  **** 
   1488  GLP           4462 ****               0 ****  **** 
   1489  GLP           4465 ****               0 ****  **** 
   1490  GLP           4468 ****               0 ****  **** 
   1491  GLP           4471 ****               0 ****  **** 
   1492  GLP           4474 ****               0 ****  **** 
   1493  GLP           4477 ****               0 ****  **** 
   1494  GLP           4480 ****               0 ****  **** 
   1495  GLP           4483 ****               0 ****  **** 
   1496  GLP           4486 ****               0 ****  **** 
   1497  GLP           4489 ****               0 ****  **** 
   1498  GLP           4492 ****               0 ****  **** 
   1499  GLP           4495 ****               0 ****  **** 
   1500  GLP           4498 ****               0 ****  **** 
   1501  GLP           4501 ****               0 ****  **** 
   1502  GLP           4504 ****               0 ****  **** 
   1503  GLP           4507 ****               0 ****  **** 
   1504  GLP           4510 ****               0 ****  **** 
   1505  GLP           4513 ****               0 ****  **** 
   1506  GLP           4516 ****               0 ****  **** 
   1507  GLP           4519 ****               0 ****  **** 
   1508  GLP           4522 ****               0 ****  **** 
   1509  GLP           4525 ****               0 ****  **** 
   1510  GLP           4528 ****               0 ****  **** 
   1511  GLP           4531 ****               0 ****  **** 
   1512  GLP           4534 ****               0 ****  **** 
   1513  GLP           4537 ****               0 ****  **** 
   1514  GLP           4540 ****               0 ****  **** 
   1515  GLP           4543 ****               0 ****  **** 
   1516  GLP           4546 ****               0 ****  **** 
   1517  GLP           4549 ****               0 ****  **** 
   1518  GLP           4552 ****               0 ****  **** 
   1519  GLP           4555 ****               0 ****  **** 
   1520  GLP           4558 ****               0 ****  **** 
   1521  GLP           4561 ****               0 ****  **** 
   1522  GLP           4564 ****               0 ****  **** 
   1523  GLP           4567 ****               0 ****  **** 
   1524  GLP           4570 ****               0 ****  **** 
   1525  GLP           4573 ****               0 ****  **** 
   1526  GLP           4576 ****               0 ****  **** 
   1527  GLP           4579 ****               0 ****  **** 
   1528  GLP           4582 ****               0 ****  **** 
   1529  GLP           4585 ****               0 ****  **** 
   1530  GLP           4588 ****               0 ****  **** 
   1531  GLP           4591 ****               0 ****  **** 
   1532  GLP           4594 ****               0 ****  **** 
   1533  GLP           4597 ****               0 ****  **** 
   1534  GLP           4600 ****               0 ****  **** 
   1535  GLP           4603 ****               0 ****  **** 
   1536  GLP           4606 ****               0 ****  **** 
   1537  GLP           4609 ****               0 ****  **** 
   1538  GLP           4612 ****               0 ****  **** 
   1539  GLP           4615 ****               0 ****  **** 
   1540  GLP           4618 ****               0 ****  **** 
   1541  GLP           4621 ****               0 ****  **** 
   1542  GLP           4624 ****               0 ****  **** 
   1543  GLP           4627 ****               0 ****  **** 
   1544  GLP           4630 ****               0 ****  **** 
   1545  GLP           4633 ****               0 ****  **** 
   1546  GLP           4636 ****               0 ****  **** 
   1547  GLP           4639 ****               0 ****  **** 
   1548  GLP           4642 ****               0 ****  **** 
   1549  GLP           4645 ****               0 ****  **** 
   1550  GLP           4648 ****               0 ****  **** 
   1551  GLP           4651 ****               0 ****  **** 
   1552  GLP           4654 ****               0 ****  **** 
   1553  GLP           4657 ****               0 ****  **** 
   1554  GLP           4660 ****               0 ****  **** 
   1555  GLP           4663 ****               0 ****  **** 
   1556  GLP           4666 ****               0 ****  **** 
   1557  GLP           4669 ****               0 ****  **** 
   1558  GLP           4672 ****               0 ****  **** 
   1559  GLP           4675 ****               0 ****  **** 
   1560  GLP           4678 ****               0 ****  **** 
   1561  GLP           4681 ****               0 ****  **** 
   1562  GLP           4684 ****               0 ****  **** 
   1563  GLP           4687 ****               0 ****  **** 
   1564  GLP           4690 ****               0 ****  **** 
   1565  GLP           4693 ****               0 ****  **** 
   1566  GLP           4696 ****               0 ****  **** 
   1567  GLP           4699 ****               0 ****  **** 
   1568  GLP           4702 ****               0 ****  **** 
   1569  GLP           4705 ****               0 ****  **** 
   1570  GLP           4708 ****               0 ****  **** 
   1571  GLP           4711 ****               0 ****  **** 
   1572  GLP           4714 ****               0 ****  **** 
   1573  GLP           4717 ****               0 ****  **** 
   1574  GLP           4720 ****               0 ****  **** 
   1575  GLP           4723 ****               0 ****  **** 
   1576  GLP           4726 ****               0 ****  **** 
   1577  GLP           4729 ****               0 ****  **** 
   1578  GLP           4732 ****               0 ****  **** 
   1579  GLP           4735 ****               0 ****  **** 
   1580  GLP           4738 ****               0 ****  **** 
   1581  GLP           4741 ****               0 ****  **** 
   1582  GLP           4744 ****               0 ****  **** 
   1583  GLP           4747 ****               0 ****  **** 
   1584  GLP           4750 ****               0 ****  **** 
   1585  GLP           4753 ****               0 ****  **** 
   1586  GLP           4756 ****               0 ****  **** 
   1587  GLP           4759 ****               0 ****  **** 
   1588  GLP           4762 ****               0 ****  **** 
   1589  GLP           4765 ****               0 ****  **** 
   1590  GLP           4768 ****               0 ****  **** 
   1591  GLP           4771 ****               0 ****  **** 
   1592  GLP           4774 ****               0 ****  **** 
   1593  GLP           4777 ****               0 ****  **** 
   1594  GLP           4780 ****               0 ****  **** 
   1595  GLP           4783 ****               0 ****  **** 
   1596  GLP           4786 ****               0 ****  **** 
   1597  GLP           4789 ****               0 ****  **** 
   1598  GLP           4792 ****               0 ****  **** 
   1599  GLP           4795 ****               0 ****  **** 
   1600  GLP           4798 ****               0 ****  **** 
   1601  GLP           4801 ****               0 ****  **** 
   1602  GLP           4804 ****               0 ****  **** 
   1603  GLP           4807 ****               0 ****  **** 
   1604  GLP           4810 ****               0 ****  **** 
   1605  GLP           4813 ****               0 ****  **** 
   1606  GLP           4816 ****               0 ****  **** 
   1607  GLP           4819 ****               0 ****  **** 
   1608  GLP           4822 ****               0 ****  **** 
   1609  GLP           4825 ****               0 ****  **** 
   1610  GLP           4828 ****               0 ****  **** 
   1611  GLP           4831 ****               0 ****  **** 
   1612  GLP           4834 ****               0 ****  **** 
   1613  GLP           4837 ****               0 ****  **** 
   1614  GLP           4840 ****               0 ****  **** 
   1615  GLP           4843 ****               0 ****  **** 
   1616  GLP           4846 ****               0 ****  **** 
   1617  GLP           4849 ****               0 ****  **** 
   1618  GLP           4852 ****               0 ****  **** 
   1619  GLP           4855 ****               0 ****  **** 
   1620  GLP           4858 ****               0 ****  **** 
   1621  GLP           4861 ****               0 ****  **** 
   1622  GLP           4864 ****               0 ****  **** 
   1623  GLP           4867 ****               0 ****  **** 
   1624  GLP           4870 ****               0 ****  **** 
   1625  GLP           4873 ****               0 ****  **** 
   1626  GLP           4876 ****               0 ****  **** 
   1627  GLP           4879 ****               0 ****  **** 
   1628  GLP           4882 ****               0 ****  **** 
   1629  GLP           4885 ****               0 ****  **** 
   1630  GLP           4888 ****               0 ****  **** 
   1631  GLP           4891 ****               0 ****  **** 
   1632  GLP           4894 ****               0 ****  **** 
   1633  GLP           4897 ****               0 ****  **** 
   1634  GLP           4900 ****               0 ****  **** 
   1635  GLP           4903 ****               0 ****  **** 
   1636  GLP           4906 ****               0 ****  **** 
   1637  GLP           4909 ****               0 ****  **** 
   1638  GLP           4912 ****               0 ****  **** 
   1639  GLP           4915 ****               0 ****  **** 
   1640  GLP           4918 ****               0 ****  **** 
   1641  GLP           4921 ****               0 ****  **** 
   1642  GLP           4924 ****               0 ****  **** 
   1643  GLP           4927 ****               0 ****  **** 
   1644  GLP           4930 ****               0 ****  **** 
   1645  GLP           4933 ****               0 ****  **** 
   1646  GLP           4936 ****               0 ****  **** 
   1647  GLP           4939 ****               0 ****  **** 
   1648  GLP           4942 ****               0 ****  **** 
   1649  GLP           4945 ****               0 ****  **** 
   1650  GLP           4948 ****               0 ****  **** 
   1651  GLP           4951 ****               0 ****  **** 
   1652  GLP           4954 ****               0 ****  **** 
   1653  GLP           4957 ****               0 ****  **** 
   1654  GLP           4960 ****               0 ****  **** 
   1655  GLP           4963 ****               0 ****  **** 
   1656  GLP           4966 ****               0 ****  **** 
   1657  GLP           4969 ****               0 ****  **** 
   1658  GLP           4972 ****               0 ****  **** 
   1659  GLP           4975 ****               0 ****  **** 
   1660  GLP           4978 ****               0 ****  **** 
   1661  GLP           4981 ****               0 ****  **** 
   1662  GLP           4984 ****               0 ****  **** 
   1663  GLP           4987 ****               0 ****  **** 
   1664  GLP           4990 ****               0 ****  **** 
   1665  GLP           4993 ****               0 ****  **** 
   1666  GLP           4996 ****               0 ****  **** 
   1667  GLP           4999 ****               0 ****  **** 
   1668  GLP           5002 ****               0 ****  **** 
   1669  GLP           5005 ****               0 ****  **** 
   1670  GLP           5008 ****               0 ****  **** 
   1671  GLP           5011 ****               0 ****  **** 
   1672  GLP           5014 ****               0 ****  **** 
   1673  GLP           5017 ****               0 ****  **** 
   1674  GLP           5020 ****               0 ****  **** 
   1675  GLP           5023 ****               0 ****  **** 
   1676  GLP           5026 ****               0 ****  **** 
   1677  GLP           5029 ****               0 ****  **** 
   1678  GLP           5032 ****               0 ****  **** 
   1679  GLP           5035 ****               0 ****  **** 
   1680  GLP           5038 ****               0 ****  **** 
   1681  GLP           5041 ****               0 ****  **** 
   1682  GLP           5044 ****               0 ****  **** 
   1683  GLP           5047 ****               0 ****  **** 
   1684  GLP           5050 ****               0 ****  **** 
   1685  GLP           5053 ****               0 ****  **** 
   1686  GLP           5056 ****               0 ****  **** 
   1687  GLP           5059 ****               0 ****  **** 
   1688  GLP           5062 ****               0 ****  **** 
   1689  GLP           5065 ****               0 ****  **** 
   1690  GLP           5068 ****               0 ****  **** 
   1691  GLP           5071 ****               0 ****  **** 
   1692  GLP           5074 ****               0 ****  **** 
   1693  GLP           5077 ****               0 ****  **** 
   1694  GLP           5080 ****               0 ****  **** 
   1695  GLP           5083 ****               0 ****  **** 
   1696  GLP           5086 ****               0 ****  **** 
   1697  GLP           5089 ****               0 ****  **** 
   1698  GLP           5092 ****               0 ****  **** 
   1699  GLP           5095 ****               0 ****  **** 
   1700  GLP           5098 ****               0 ****  **** 
   1701  GLP           5101 ****               0 ****  **** 
   1702  GLP           5104 ****               0 ****  **** 
   1703  GLP           5107 ****               0 ****  **** 
   1704  GLP           5110 ****               0 ****  **** 
   1705  GLP           5113 ****               0 ****  **** 
   1706  GLP           5116 ****               0 ****  **** 
   1707  GLP           5119 ****               0 ****  **** 
   1708  GLP           5122 ****               0 ****  **** 
   1709  GLP           5125 ****               0 ****  **** 
   1710  GLP           5128 ****               0 ****  **** 
   1711  GLP           5131 ****               0 ****  **** 
   1712  GLP           5134 ****               0 ****  **** 
   1713  GLP           5137 ****               0 ****  **** 
   1714  GLP           5140 ****               0 ****  **** 
   1715  GLP           5143 ****               0 ****  **** 
   1716  GLP           5146 ****               0 ****  **** 
   1717  GLP           5149 ****               0 ****  **** 
   1718  GLP           5152 ****               0 ****  **** 
   1719  GLP           5155 ****               0 ****  **** 
   1720  GLP           5158 ****               0 ****  **** 
   1721  GLP           5161 ****               0 ****  **** 
   1722  GLP           5164 ****               0 ****  **** 
   1723  GLP           5167 ****               0 ****  **** 
   1724  GLP           5170 ****               0 ****  **** 
   1725  GLP           5173 ****               0 ****  **** 
   1726  GLP           5176 ****               0 ****  **** 
   1727  GLP           5179 ****               0 ****  **** 
   1728  GLP           5182 ****               0 ****  **** 
   1729  GLP           5185 ****               0 ****  **** 
   1730  GLP           5188 ****               0 ****  **** 
   1731  GLP           5191 ****               0 ****  **** 
   1732  GLP           5194 ****               0 ****  **** 
   1733  GLP           5197 ****               0 ****  **** 
   1734  GLP           5200 ****               0 ****  **** 
   1735  GLP           5203 ****               0 ****  **** 
   1736  GLP           5206 ****               0 ****  **** 
   1737  GLP           5209 ****               0 ****  **** 
   1738  GLP           5212 ****               0 ****  **** 
   1739  GLP           5215 ****               0 ****  **** 
   1740  GLP           5218 ****               0 ****  **** 
   1741  GLP           5221 ****               0 ****  **** 
   1742  GLP           5224 ****               0 ****  **** 
   1743  GLP           5227 ****               0 ****  **** 
   1744  GLP           5230 ****               0 ****  **** 
   1745  GLP           5233 ****               0 ****  **** 
   1746  GLP           5236 ****               0 ****  **** 
   1747  GLP           5239 ****               0 ****  **** 
   1748  GLP           5242 ****               0 ****  **** 
   1749  GLP           5245 ****               0 ****  **** 
   1750  GLP           5248 ****               0 ****  **** 
   1751  GLP           5251 ****               0 ****  **** 
   1752  GLP           5254 ****               0 ****  **** 
   1753  GLP           5257 ****               0 ****  **** 
   1754  GLP           5260 ****               0 ****  **** 
   1755  GLP           5263 ****               0 ****  **** 
   1756  GLP           5266 ****               0 ****  **** 
   1757  GLP           5269 ****               0 ****  **** 
   1758  GLP           5272 ****               0 ****  **** 
   1759  GLP           5275 ****               0 ****  **** 
   1760  GLP           5278 ****               0 ****  **** 
   1761  GLP           5281 ****               0 ****  **** 
   1762  GLP           5284 ****               0 ****  **** 
   1763  GLP           5287 ****               0 ****  **** 
   1764  GLP           5290 ****               0 ****  **** 
   1765  GLP           5293 ****               0 ****  **** 
   1766  GLP           5296 ****               0 ****  **** 
   1767  GLP           5299 ****               0 ****  **** 
   1768  GLP           5302 ****               0 ****  **** 
   1769  GLP           5305 ****               0 ****  **** 
   1770  GLP           5308 ****               0 ****  **** 
   1771  GLP           5311 ****               0 ****  **** 
   1772  GLP           5314 ****               0 ****  **** 
   1773  GLP           5317 ****               0 ****  **** 
   1774  GLP           5320 ****               0 ****  **** 
   1775  GLP           5323 ****               0 ****  **** 
   1776  GLP           5326 ****               0 ****  **** 
   1777  GLP           5329 ****               0 ****  **** 
   1778  GLP           5332 ****               0 ****  **** 
   1779  GLP           5335 ****               0 ****  **** 
   1780  GLP           5338 ****               0 ****  **** 
   1781  GLP           5341 ****               0 ****  **** 
   1782  GLP           5344 ****               0 ****  **** 
   1783  GLP           5347 ****               0 ****  **** 
   1784  GLP           5350 ****               0 ****  **** 
   1785  GLP           5353 ****               0 ****  **** 
   1786  GLP           5356 ****               0 ****  **** 
   1787  GLP           5359 ****               0 ****  **** 
   1788  GLP           5362 ****               0 ****  **** 
   1789  GLP           5365 ****               0 ****  **** 
   1790  GLP           5368 ****               0 ****  **** 
   1791  GLP           5371 ****               0 ****  **** 
   1792  GLP           5374 ****               0 ****  **** 
   1793  GLP           5377 ****               0 ****  **** 
   1794  GLP           5380 ****               0 ****  **** 
   1795  GLP           5383 ****               0 ****  **** 
   1796  GLP           5386 ****               0 ****  **** 
   1797  GLP           5389 ****               0 ****  **** 
   1798  GLP           5392 ****               0 ****  **** 
   1799  GLP           5395 ****               0 ****  **** 
   1800  GLP           5398 ****               0 ****  **** 
   1801  GLP           5401 ****               0 ****  **** 
   1802  GLP           5404 ****               0 ****  **** 
   1803  GLP           5407 ****               0 ****  **** 
   1804  GLP           5410 ****               0 ****  **** 
   1805  GLP           5413 ****               0 ****  **** 
   1806  GLP           5416 ****               0 ****  **** 
   1807  GLP           5419 ****               0 ****  **** 
   1808  GLP           5422 ****               0 ****  **** 
   1809  GLP           5425 ****               0 ****  **** 
   1810  GLP           5428 ****               0 ****  **** 
   1811  GLP           5431 ****               0 ****  **** 
   1812  GLP           5434 ****               0 ****  **** 
   1813  GLP           5437 ****               0 ****  **** 
   1814  GLP           5440 ****               0 ****  **** 
   1815  GLP           5443 ****               0 ****  **** 
   1816  GLP           5446 ****               0 ****  **** 
   1817  GLP           5449 ****               0 ****  **** 
   1818  GLP           5452 ****               0 ****  **** 
   1819  GLP           5455 ****               0 ****  **** 
   1820  GLP           5458 ****               0 ****  **** 
   1821  GLP           5461 ****               0 ****  **** 
   1822  GLP           5464 ****               0 ****  **** 
   1823  GLP           5467 ****               0 ****  **** 
   1824  GLP           5470 ****               0 ****  **** 
   1825  GLP           5473 ****               0 ****  **** 
   1826  GLP           5476 ****               0 ****  **** 
   1827  GLP           5479 ****               0 ****  **** 
   1828  GLP           5482 ****               0 ****  **** 
   1829  GLP           5485 ****               0 ****  **** 
   1830  GLP           5488 ****               0 ****  **** 
   1831  GLP           5491 ****               0 ****  **** 
   1832  GLP           5494 ****               0 ****  **** 
   1833  GLP           5497 ****               0 ****  **** 
   1834  GLP           5500 ****               0 ****  **** 
   1835  GLP           5503 ****               0 ****  **** 
   1836  GLP           5506 ****               0 ****  **** 
   1837  GLP           5509 ****               0 ****  **** 
   1838  GLP           5512 ****               0 ****  **** 
   1839  GLP           5515 ****               0 ****  **** 
   1840  GLP           5518 ****               0 ****  **** 
   1841  GLP           5521 ****               0 ****  **** 
   1842  GLP           5524 ****               0 ****  **** 
   1843  GLP           5527 ****               0 ****  **** 
   1844  GLP           5530 ****               0 ****  **** 
   1845  GLP           5533 ****               0 ****  **** 
   1846  GLP           5536 ****               0 ****  **** 
   1847  GLP           5539 ****               0 ****  **** 
   1848  GLP           5542 ****               0 ****  **** 
   1849  GLP           5545 ****               0 ****  **** 
   1850  GLP           5548 ****               0 ****  **** 
   1851  GLP           5551 ****               0 ****  **** 
   1852  GLP           5554 ****               0 ****  **** 
   1853  GLP           5557 ****               0 ****  **** 
   1854  GLP           5560 ****               0 ****  **** 
   1855  GLP           5563 ****               0 ****  **** 
   1856  GLP           5566 ****               0 ****  **** 
   1857  GLP           5569 ****               0 ****  **** 
   1858  GLP           5572 ****               0 ****  **** 
   1859  GLP           5575 ****               0 ****  **** 
   1860  GLP           5578 ****               0 ****  **** 
   1861  GLP           5581 ****               0 ****  **** 
   1862  GLP           5584 ****               0 ****  **** 
   1863  GLP           5587 ****               0 ****  **** 
   1864  GLP           5590 ****               0 ****  **** 
   1865  GLP           5593 ****               0 ****  **** 
   1866  GLP           5596 ****               0 ****  **** 
   1867  GLP           5599 ****               0 ****  **** 
   1868  GLP           5602 ****               0 ****  **** 
   1869  GLP           5605 ****               0 ****  **** 
   1870  GLP           5608 ****               0 ****  **** 
   1871  GLP           5611 ****               0 ****  **** 
   1872  GLP           5614 ****               0 ****  **** 
   1873  GLP           5617 ****               0 ****  **** 
   1874  GLP           5620 ****               0 ****  **** 
   1875  GLP           5623 ****               0 ****  **** 
   1876  GLP           5626 ****               0 ****  **** 
   1877  GLP           5629 ****               0 ****  **** 
   1878  GLP           5632 ****               0 ****  **** 
   1879  GLP           5635 ****               0 ****  **** 
   1880  GLP           5638 ****               0 ****  **** 
   1881  GLP           5641 ****               0 ****  **** 
   1882  GLP           5644 ****               0 ****  **** 
   1883  GLP           5647 ****               0 ****  **** 
   1884  GLP           5650 ****               0 ****  **** 
   1885  GLP           5653 ****               0 ****  **** 
   1886  GLP           5656 ****               0 ****  **** 
   1887  GLP           5659 ****               0 ****  **** 
   1888  GLP           5662 ****               0 ****  **** 
   1889  GLP           5665 ****               0 ****  **** 
   1890  GLP           5668 ****               0 ****  **** 
   1891  GLP           5671 ****               0 ****  **** 
   1892  GLP           5674 ****               0 ****  **** 
   1893  GLP           5677 ****               0 ****  **** 
   1894  GLP           5680 ****               0 ****  **** 
   1895  GLP           5683 ****               0 ****  **** 
   1896  GLP           5686 ****               0 ****  **** 
   1897  GLP           5689 ****               0 ****  **** 
   1898  GLP           5692 ****               0 ****  **** 
   1899  GLP           5695 ****               0 ****  **** 
   1900  GLP           5698 ****               0 ****  **** 
   1901  GLP           5701 ****               0 ****  **** 
   1902  GLP           5704 ****               0 ****  **** 
   1903  GLP           5707 ****               0 ****  **** 
   1904  GLP           5710 ****               0 ****  **** 
   1905  GLP           5713 ****               0 ****  **** 
   1906  GLP           5716 ****               0 ****  **** 
   1907  GLP           5719 ****               0 ****  **** 
   1908  GLP           5722 ****               0 ****  **** 
   1909  GLP           5725 ****               0 ****  **** 
   1910  GLP           5728 ****               0 ****  **** 
   1911  GLP           5731 ****               0 ****  **** 
   1912  GLP           5734 ****               0 ****  **** 
   1913  GLP           5737 ****               0 ****  **** 
   1914  GLP           5740 ****               0 ****  **** 
   1915  GLP           5743 ****               0 ****  **** 
   1916  GLP           5746 ****               0 ****  **** 
   1917  GLP           5749 ****               0 ****  **** 
   1918  GLP           5752 ****               0 ****  **** 
   1919  GLP           5755 ****               0 ****  **** 
   1920  GLP           5758 ****               0 ****  **** 
   1921  GLP           5761 ****               0 ****  **** 
   1922  GLP           5764 ****               0 ****  **** 
   1923  GLP           5767 ****               0 ****  **** 
   1924  GLP           5770 ****               0 ****  **** 
   1925  GLP           5773 ****               0 ****  **** 
   1926  GLP           5776 ****               0 ****  **** 
   1927  GLP           5779 ****               0 ****  **** 
   1928  GLP           5782 ****               0 ****  **** 
   1929  GLP           5785 ****               0 ****  **** 
   1930  GLP           5788 ****               0 ****  **** 
   1931  GLP           5791 ****               0 ****  **** 
   1932  GLP           5794 ****               0 ****  **** 
   1933  GLP           5797 ****               0 ****  **** 
   1934  GLP           5800 ****               0 ****  **** 
   1935  GLP           5803 ****               0 ****  **** 
   1936  GLP           5806 ****               0 ****  **** 
   1937  GLP           5809 ****               0 ****  **** 
   1938  GLP           5812 ****               0 ****  **** 
   1939  GLP           5815 ****               0 ****  **** 
   1940  GLP           5818 ****               0 ****  **** 
   1941  GLP           5821 ****               0 ****  **** 
   1942  GLP           5824 ****               0 ****  **** 
   1943  GLP           5827 ****               0 ****  **** 
   1944  GLP           5830 ****               0 ****  **** 
   1945  GLP           5833 ****               0 ****  **** 
   1946  GLP           5836 ****               0 ****  **** 
   1947  GLP           5839 ****               0 ****  **** 
   1948  GLP           5842 ****               0 ****  **** 
   1949  GLP           5845 ****               0 ****  **** 
   1950  GLP           5848 ****               0 ****  **** 
   1951  GLP           5851 ****               0 ****  **** 
   1952  GLP           5854 ****               0 ****  **** 
   1953  GLP           5857 ****               0 ****  **** 
   1954  GLP           5860 ****               0 ****  **** 
   1955  GLP           5863 ****               0 ****  **** 
   1956  GLP           5866 ****               0 ****  **** 
   1957  GLP           5869 ****               0 ****  **** 
   1958  GLP           5872 ****               0 ****  **** 
   1959  GLP           5875 ****               0 ****  **** 
   1960  GLP           5878 ****               0 ****  **** 
   1961  GLP           5881 ****               0 ****  **** 
   1962  GLP           5884 ****               0 ****  **** 
   1963  GLP           5887 ****               0 ****  **** 
   1964  GLP           5890 ****               0 ****  **** 
   1965  GLP           5893 ****               0 ****  **** 
   1966  GLP           5896 ****               0 ****  **** 
   1967  GLP           5899 ****               0 ****  **** 
   1968  GLP           5902 ****               0 ****  **** 
   1969  GLP           5905 ****               0 ****  **** 
   1970  GLP           5908 ****               0 ****  **** 
   1971  GLP           5911 ****               0 ****  **** 
   1972  GLP           5914 ****               0 ****  **** 
   1973  GLP           5917 ****               0 ****  **** 
   1974  GLP           5920 ****               0 ****  **** 
   1975  GLP           5923 ****               0 ****  **** 
   1976  GLP           5926 ****               0 ****  **** 
   1977  GLP           5929 ****               0 ****  **** 
   1978  GLP           5932 ****               0 ****  **** 
   1979  GLP           5935 ****               0 ****  **** 
   1980  GLP           5938 ****               0 ****  **** 
   1981  GLP           5941 ****               0 ****  **** 
   1982  GLP           5944 ****               0 ****  **** 
   1983  GLP           5947 ****               0 ****  **** 
   1984  GLP           5950 ****               0 ****  **** 
   1985  GLP           5953 ****               0 ****  **** 
   1986  GLP           5956 ****               0 ****  **** 
   1987  GLP           5959 ****               0 ****  **** 
   1988  GLP           5962 ****               0 ****  **** 
   1989  GLP           5965 ****               0 ****  **** 
   1990  GLP           5968 ****               0 ****  **** 
   1991  GLP           5971 ****               0 ****  **** 
   1992  GLP           5974 ****               0 ****  **** 
   1993  GLP           5977 ****               0 ****  **** 
   1994  GLP           5980 ****               0 ****  **** 
   1995  GLP           5983 ****               0 ****  **** 
   1996  GLP           5986 ****               0 ****  **** 
   1997  GLP           5989 ****               0 ****  **** 
   1998  GLP           5992 ****               0 ****  **** 
   1999  GLP           5995 ****               0 ****  **** 
   2000  GLP           5998 ****               0 ****  **** 
   2001  GLP           6001 ****               0 ****  **** 
   2002  GLP           6004 ****               0 ****  **** 
   2003  GLP           6007 ****               0 ****  **** 
   2004  GLP           6010 ****               0 ****  **** 
   2005  GLP           6013 ****               0 ****  **** 
   2006  GLP           6016 ****               0 ****  **** 
   2007  GLP           6019 ****               0 ****  **** 
   2008  GLP           6022 ****               0 ****  **** 
   2009  GLP           6025 ****               0 ****  **** 
   2010  GLP           6028 ****               0 ****  **** 
   2011  GLP           6031 ****               0 ****  **** 
   2012  GLP           6034 ****               0 ****  **** 
   2013  GLP           6037 ****               0 ****  **** 
   2014  GLP           6040 ****               0 ****  **** 
   2015  GLP           6043 ****               0 ****  **** 
   2016  GLP           6046 ****               0 ****  **** 
   2017  GLP           6049 ****               0 ****  **** 
   2018  GLP           6052 ****               0 ****  **** 
   2019  GLP           6055 ****               0 ****  **** 
   2020  GLP           6058 ****               0 ****  **** 
   2021  GLP           6061 ****               0 ****  **** 
   2022  GLP           6064 ****               0 ****  **** 
   2023  GLP           6067 ****               0 ****  **** 
   2024  GLP           6070 ****               0 ****  **** 
   2025  GLP           6073 ****               0 ****  **** 
   2026  GLP           6076 ****               0 ****  **** 
   2027  GLP           6079 ****               0 ****  **** 
   2028  GLP           6082 ****               0 ****  **** 
   2029  GLP           6085 ****               0 ****  **** 
   2030  GLP           6088 ****               0 ****  **** 
   2031  GLP           6091 ****               0 ****  **** 
   2032  GLP           6094 ****               0 ****  **** 
   2033  GLP           6097 ****               0 ****  **** 
   2034  GLP           6100 ****               0 ****  **** 
   2035  GLP           6103 ****               0 ****  **** 
   2036  GLP           6106 ****               0 ****  **** 
   2037  GLP           6109 ****               0 ****  **** 
   2038  GLP           6112 ****               0 ****  **** 
   2039  GLP           6115 ****               0 ****  **** 
   2040  GLP           6118 ****               0 ****  **** 
   2041  GLP           6121 ****               0 ****  **** 
   2042  GLP           6124 ****               0 ****  **** 
   2043  GLP           6127 ****               0 ****  **** 
   2044  GLP           6130 ****               0 ****  **** 
   2045  GLP           6133 ****               0 ****  **** 
   2046  GLP           6136 ****               0 ****  **** 
   2047  GLP           6139 ****               0 ****  **** 
   2048  GLP           6142 ****               0 ****  **** 
   2049  GLP           6145 ****               0 ****  **** 
   2050  GLP           6148 ****               0 ****  **** 
   2051  GLP           6151 ****               0 ****  **** 
   2052  GLP           6154 ****               0 ****  **** 
   2053  GLP           6157 ****               0 ****  **** 
   2054  GLP           6160 ****               0 ****  **** 
   2055  GLP           6163 ****               0 ****  **** 
   2056  GLP           6166 ****               0 ****  **** 
   2057  GLP           6169 ****               0 ****  **** 
   2058  GLP           6172 ****               0 ****  **** 
   2059  GLP           6175 ****               0 ****  **** 
   2060  GLP           6178 ****               0 ****  **** 
   2061  GLP           6181 ****               0 ****  **** 
   2062  GLP           6184 ****               0 ****  **** 
   2063  GLP           6187 ****               0 ****  **** 
   2064  GLP           6190 ****               0 ****  **** 
   2065  GLP           6193 ****               0 ****  **** 
   2066  GLP           6196 ****               0 ****  **** 
   2067  GLP           6199 ****               0 ****  **** 
   2068  GLP           6202 ****               0 ****  **** 
   2069  GLP           6205 ****               0 ****  **** 
   2070  GLP           6208 ****               0 ****  **** 
   2071  GLP           6211 ****               0 ****  **** 
   2072  GLP           6214 ****               0 ****  **** 
   2073  GLP           6217 ****               0 ****  **** 
   2074  GLP           6220 ****               0 ****  **** 
   2075  GLP           6223 ****               0 ****  **** 
   2076  GLP           6226 ****               0 ****  **** 
   2077  GLP           6229 ****               0 ****  **** 
   2078  GLP           6232 ****               0 ****  **** 
   2079  GLP           6235 ****               0 ****  **** 
   2080  GLP           6238 ****               0 ****  **** 
   2081  GLP           6241 ****               0 ****  **** 
   2082  GLP           6244 ****               0 ****  **** 
   2083  GLP           6247 ****               0 ****  **** 
   2084  GLP           6250 ****               0 ****  **** 
   2085  GLP           6253 ****               0 ****  **** 
   2086  GLP           6256 ****               0 ****  **** 
   2087  GLP           6259 ****               0 ****  **** 
   2088  GLP           6262 ****               0 ****  **** 
   2089  GLP           6265 ****               0 ****  **** 
   2090  GLP           6268 ****               0 ****  **** 
   2091  GLP           6271 ****               0 ****  **** 
   2092  GLP           6274 ****               0 ****  **** 
   2093  GLP           6277 ****               0 ****  **** 
   2094  GLP           6280 ****               0 ****  **** 
   2095  GLP           6283 ****               0 ****  **** 
   2096  GLP           6286 ****               0 ****  **** 
   2097  GLP           6289 ****               0 ****  **** 
   2098  GLP           6292 ****               0 ****  **** 
   2099  GLP           6295 ****               0 ****  **** 
   2100  GLP           6298 ****               0 ****  **** 
   2101  GLP           6301 ****               0 ****  **** 
   2102  GLP           6304 ****               0 ****  **** 
   2103  GLP           6307 ****               0 ****  **** 
   2104  GLP           6310 ****               0 ****  **** 
   2105  GLP           6313 ****               0 ****  **** 
   2106  GLP           6316 ****               0 ****  **** 
   2107  GLP           6319 ****               0 ****  **** 
   2108  GLP           6322 ****               0 ****  **** 
   2109  GLP           6325 ****               0 ****  **** 
   2110  GLP           6328 ****               0 ****  **** 
   2111  GLP           6331 ****               0 ****  **** 
   2112  GLP           6334 ****               0 ****  **** 
   2113  GLP           6337 ****               0 ****  **** 
   2114  GLP           6340 ****               0 ****  **** 
   2115  GLP           6343 ****               0 ****  **** 
   2116  GLP           6346 ****               0 ****  **** 
   2117  GLP           6349 ****               0 ****  **** 
   2118  GLP           6352 ****               0 ****  **** 
   2119  GLP           6355 ****               0 ****  **** 
   2120  GLP           6358 ****               0 ****  **** 
   2121  GLP           6361 ****               0 ****  **** 
   2122  GLP           6364 ****               0 ****  **** 
   2123  GLP           6367 ****               0 ****  **** 
   2124  GLP           6370 ****               0 ****  **** 
   2125  GLP           6373 ****               0 ****  **** 
   2126  GLP           6376 ****               0 ****  **** 
   2127  GLP           6379 ****               0 ****  **** 
   2128  GLP           6382 ****               0 ****  **** 
   2129  GLP           6385 ****               0 ****  **** 
   2130  GLP           6388 ****               0 ****  **** 
   2131  GLP           6391 ****               0 ****  **** 
   2132  GLP           6394 ****               0 ****  **** 
   2133  GLP           6397 ****               0 ****  **** 
   2134  GLP           6400 ****               0 ****  **** 
   2135  GLP           6403 ****               0 ****  **** 
   2136  GLP           6406 ****               0 ****  **** 
   2137  GLP           6409 ****               0 ****  **** 
   2138  GLP           6412 ****               0 ****  **** 
   2139  GLP           6415 ****               0 ****  **** 
   2140  GLP           6418 ****               0 ****  **** 
   2141  GLP           6421 ****               0 ****  **** 
   2142  GLP           6424 ****               0 ****  **** 
   2143  GLP           6427 ****               0 ****  **** 
   2144  GLP           6430 ****               0 ****  **** 
   2145  GLP           6433 ****               0 ****  **** 
   2146  GLP           6436 ****               0 ****  **** 
   2147  GLP           6439 ****               0 ****  **** 
   2148  GLP           6442 ****               0 ****  **** 
   2149  GLP           6445 ****               0 ****  **** 
   2150  GLP           6448 ****               0 ****  **** 
   2151  GLP           6451 ****               0 ****  **** 
   2152  GLP           6454 ****               0 ****  **** 
   2153  GLP           6457 ****               0 ****  **** 
   2154  GLP           6460 ****               0 ****  **** 
   2155  GLP           6463 ****               0 ****  **** 
   2156  GLP           6466 ****               0 ****  **** 
   2157  GLP           6469 ****               0 ****  **** 
   2158  GLP           6472 ****               0 ****  **** 
   2159  GLP           6475 ****               0 ****  **** 
   2160  GLP           6478 ****               0 ****  **** 
   2161  GLP           6481 ****               0 ****  **** 
   2162  GLP           6484 ****               0 ****  **** 
   2163  GLP           6487 ****               0 ****  **** 
   2164  GLP           6490 ****               0 ****  **** 
   2165  GLP           6493 ****               0 ****  **** 
   2166  GLP           6496 ****               0 ****  **** 
   2167  GLP           6499 ****               0 ****  **** 
   2168  GLP           6502 ****               0 ****  **** 
   2169  GLP           6505 ****               0 ****  **** 
   2170  GLP           6508 ****               0 ****  **** 
   2171  GLP           6511 ****               0 ****  **** 
   2172  GLP           6514 ****               0 ****  **** 
   2173  GLP           6517 ****               0 ****  **** 
   2174  GLP           6520 ****               0 ****  **** 
   2175  GLP           6523 ****               0 ****  **** 
   2176  GLP           6526 ****               0 ****  **** 
   2177  GLP           6529 ****               0 ****  **** 
   2178  GLP           6532 ****               0 ****  **** 
   2179  GLP           6535 ****               0 ****  **** 
   2180  GLP           6538 ****               0 ****  **** 
   2181  GLP           6541 ****               0 ****  **** 
   2182  GLP           6544 ****               0 ****  **** 
   2183  GLP           6547 ****               0 ****  **** 
   2184  GLP           6550 ****               0 ****  **** 
   2185  GLP           6553 ****               0 ****  **** 
   2186  GLP           6556 ****               0 ****  **** 
   2187  GLP           6559 ****               0 ****  **** 
   2188  GLP           6562 ****               0 ****  **** 
   2189  GLP           6565 ****               0 ****  **** 
   2190  GLP           6568 ****               0 ****  **** 
   2191  GLP           6571 ****               0 ****  **** 
   2192  GLP           6574 ****               0 ****  **** 
   2193  GLP           6577 ****               0 ****  **** 
   2194  GLP           6580 ****               0 ****  **** 
   2195  GLP           6583 ****               0 ****  **** 
   2196  GLP           6586 ****               0 ****  **** 
   2197  GLP           6589 ****               0 ****  **** 
   2198  GLP           6592 ****               0 ****  **** 
   2199  GLP           6595 ****               0 ****  **** 
   2200  GLP           6598 ****               0 ****  **** 
   2201  GLP           6601 ****               0 ****  **** 
   2202  GLP           6604 ****               0 ****  **** 
   2203  GLP           6607 ****               0 ****  **** 
   2204  GLP           6610 ****               0 ****  **** 
   2205  GLP           6613 ****               0 ****  **** 
   2206  GLP           6616 ****               0 ****  **** 
   2207  GLP           6619 ****               0 ****  **** 
   2208  GLP           6622 ****               0 ****  **** 
   2209  GLP           6625 ****               0 ****  **** 
   2210  GLP           6628 ****               0 ****  **** 
   2211  GLP           6631 ****               0 ****  **** 
   2212  GLP           6634 ****               0 ****  **** 
   2213  GLP           6637 ****               0 ****  **** 
   2214  GLP           6640 ****               0 ****  **** 
   2215  GLP           6643 ****               0 ****  **** 
   2216  GLP           6646 ****               0 ****  **** 
   2217  GLP           6649 ****               0 ****  **** 
   2218  GLP           6652 ****               0 ****  **** 
   2219  GLP           6655 ****               0 ****  **** 
   2220  GLP           6658 ****               0 ****  **** 
   2221  GLP           6661 ****               0 ****  **** 
   2222  GLP           6664 ****               0 ****  **** 
   2223  GLP           6667 ****               0 ****  **** 
   2224  GLP           6670 ****               0 ****  **** 
   2225  GLP           6673 ****               0 ****  **** 
   2226  GLP           6676 ****               0 ****  **** 
   2227  GLP           6679 ****               0 ****  **** 
   2228  GLP           6682 ****               0 ****  **** 
   2229  GLP           6685 ****               0 ****  **** 
   2230  GLP           6688 ****               0 ****  **** 
   2231  GLP           6691 ****               0 ****  **** 
   2232  GLP           6694 ****               0 ****  **** 
   2233  GLP           6697 ****               0 ****  **** 
   2234  GLP           6700 ****               0 ****  **** 
   2235  GLP           6703 ****               0 ****  **** 
   2236  GLP           6706 ****               0 ****  **** 
   2237  GLP           6709 ****               0 ****  **** 
   2238  GLP           6712 ****               0 ****  **** 
   2239  GLP           6715 ****               0 ****  **** 
   2240  GLP           6718 ****               0 ****  **** 
   2241  GLP           6721 ****               0 ****  **** 
   2242  GLP           6724 ****               0 ****  **** 
   2243  GLP           6727 ****               0 ****  **** 
   2244  GLP           6730 ****               0 ****  **** 
   2245  GLP           6733 ****               0 ****  **** 
   2246  GLP           6736 ****               0 ****  **** 
   2247  GLP           6739 ****               0 ****  **** 
   2248  GLP           6742 ****               0 ****  **** 
   2249  GLP           6745 ****               0 ****  **** 
   2250  GLP           6748 ****               0 ****  **** 
   2251  GLP           6751 ****               0 ****  **** 
   2252  GLP           6754 ****               0 ****  **** 
   2253  GLP           6757 ****               0 ****  **** 
   2254  GLP           6760 ****               0 ****  **** 
   2255  GLP           6763 ****               0 ****  **** 
   2256  GLP           6766 ****               0 ****  **** 
   2257  GLP           6769 ****               0 ****  **** 
   2258  GLP           6772 ****               0 ****  **** 
   2259  GLP           6775 ****               0 ****  **** 
   2260  GLP           6778 ****               0 ****  **** 
   2261  GLP           6781 ****               0 ****  **** 
   2262  GLP           6784 ****               0 ****  **** 
   2263  GLP           6787 ****               0 ****  **** 
   2264  GLP           6790 ****               0 ****  **** 
   2265  GLP           6793 ****               0 ****  **** 
   2266  GLP           6796 ****               0 ****  **** 
   2267  GLP           6799 ****               0 ****  **** 
   2268  GLP           6802 ****               0 ****  **** 
   2269  GLP           6805 ****               0 ****  **** 
   2270  GLP           6808 ****               0 ****  **** 
   2271  GLP           6811 ****               0 ****  **** 
   2272  GLP           6814 ****               0 ****  **** 
   2273  GLP           6817 ****               0 ****  **** 
   2274  GLP           6820 ****               0 ****  **** 
   2275  GLP           6823 ****               0 ****  **** 
   2276  GLP           6826 ****               0 ****  **** 
   2277  GLP           6829 ****               0 ****  **** 
   2278  GLP           6832 ****               0 ****  **** 
   2279  GLP           6835 ****               0 ****  **** 
   2280  GLP           6838 ****               0 ****  **** 
   2281  GLP           6841 ****               0 ****  **** 
   2282  GLP           6844 ****               0 ****  **** 
   2283  GLP           6847 ****               0 ****  **** 
   2284  GLP           6850 ****               0 ****  **** 
   2285  GLP           6853 ****               0 ****  **** 
   2286  GLP           6856 ****               0 ****  **** 
   2287  GLP           6859 ****               0 ****  **** 
   2288  GLP           6862 ****               0 ****  **** 
   2289  GLP           6865 ****               0 ****  **** 
   2290  GLP           6868 ****               0 ****  **** 
   2291  GLP           6871 ****               0 ****  **** 
   2292  GLP           6874 ****               0 ****  **** 
   2293  GLP           6877 ****               0 ****  **** 
   2294  GLP           6880 ****               0 ****  **** 
   2295  GLP           6883 ****               0 ****  **** 
   2296  GLP           6886 ****               0 ****  **** 
   2297  GLP           6889 ****               0 ****  **** 
   2298  GLP           6892 ****               0 ****  **** 
   2299  GLP           6895 ****               0 ****  **** 
   2300  GLP           6898 ****               0 ****  **** 
   2301  GLP           6901 ****               0 ****  **** 
   2302  GLP           6904 ****               0 ****  **** 
   2303  GLP           6907 ****               0 ****  **** 
   2304  GLP           6910 ****               0 ****  **** 
   2305  GLP           6913 ****               0 ****  **** 
   2306  GLP           6916 ****               0 ****  **** 
   2307  GLP           6919 ****               0 ****  **** 
   2308  GLP           6922 ****               0 ****  **** 
   2309  GLP           6925 ****               0 ****  **** 
   2310  GLP           6928 ****               0 ****  **** 
   2311  GLP           6931 ****               0 ****  **** 
   2312  GLP           6934 ****               0 ****  **** 
   2313  GLP           6937 ****               0 ****  **** 
   2314  GLP           6940 ****               0 ****  **** 
   2315  GLP           6943 ****               0 ****  **** 
   2316  GLP           6946 ****               0 ****  **** 
   2317  GLP           6949 ****               0 ****  **** 
   2318  GLP           6952 ****               0 ****  **** 
   2319  GLP           6955 ****               0 ****  **** 
   2320  GLP           6958 ****               0 ****  **** 
   2321  GLP           6961 ****               0 ****  **** 
   2322  GLP           6964 ****               0 ****  **** 
   2323  GLP           6967 ****               0 ****  **** 
   2324  GLP           6970 ****               0 ****  **** 
   2325  GLP           6973 ****               0 ****  **** 
   2326  GLP           6976 ****               0 ****  **** 
   2327  GLP           6979 ****               0 ****  **** 
   2328  GLP           6982 ****               0 ****  **** 
   2329  GLP           6985 ****               0 ****  **** 
   2330  GLP           6988 ****               0 ****  **** 
   2331  GLP           6991 ****               0 ****  **** 
   2332  GLP           6994 ****               0 ****  **** 
   2333  GLP           6997 ****               0 ****  **** 
   2334  GLP           7000 ****               0 ****  **** 
   2335  GLP           7003 ****               0 ****  **** 
   2336  GLP           7006 ****               0 ****  **** 
   2337  GLP           7009 ****               0 ****  **** 
   2338  GLP           7012 ****               0 ****  **** 
   2339  GLP           7015 ****               0 ****  **** 
   2340  GLP           7018 ****               0 ****  **** 
   2341  GLP           7021 ****               0 ****  **** 
   2342  GLP           7024 ****               0 ****  **** 
   2343  GLP           7027 ****               0 ****  **** 
   2344  GLP           7030 ****               0 ****  **** 
   2345  GLP           7033 ****               0 ****  **** 
   2346  GLP           7036 ****               0 ****  **** 
   2347  GLP           7039 ****               0 ****  **** 
   2348  GLP           7042 ****               0 ****  **** 
   2349  GLP           7045 ****               0 ****  **** 
   2350  GLP           7048 ****               0 ****  **** 
   2351  GLP           7051 ****               0 ****  **** 
   2352  GLP           7054 ****               0 ****  **** 
   2353  GLP           7057 ****               0 ****  **** 
   2354  GLP           7060 ****               0 ****  **** 
   2355  GLP           7063 ****               0 ****  **** 
   2356  GLP           7066 ****               0 ****  **** 
   2357  GLP           7069 ****               0 ****  **** 
   2358  GLP           7072 ****               0 ****  **** 
   2359  GLP           7075 ****               0 ****  **** 
   2360  GLP           7078 ****               0 ****  **** 
   2361  GLP           7081 ****               0 ****  **** 
   2362  GLP           7084 ****               0 ****  **** 
   2363  GLP           7087 ****               0 ****  **** 
   2364  GLP           7090 ****               0 ****  **** 
   2365  GLP           7093 ****               0 ****  **** 
   2366  GLP           7096 ****               0 ****  **** 
   2367  GLP           7099 ****               0 ****  **** 
   2368  GLP           7102 ****               0 ****  **** 
   2369  GLP           7105 ****               0 ****  **** 
   2370  GLP           7108 ****               0 ****  **** 
   2371  GLP           7111 ****               0 ****  **** 
   2372  GLP           7114 ****               0 ****  **** 
   2373  GLP           7117 ****               0 ****  **** 
   2374  GLP           7120 ****               0 ****  **** 
   2375  GLP           7123 ****               0 ****  **** 
   2376  GLP           7126 ****               0 ****  **** 
   2377  GLP           7129 ****               0 ****  **** 
   2378  GLP           7132 ****               0 ****  **** 
   2379  GLP           7135 ****               0 ****  **** 
   2380  GLP           7138 ****               0 ****  **** 
   2381  GLP           7141 ****               0 ****  **** 
   2382  GLP           7144 ****               0 ****  **** 
   2383  GLP           7147 ****               0 ****  **** 
   2384  GLP           7150 ****               0 ****  **** 
   2385  GLP           7153 ****               0 ****  **** 
   2386  GLP           7156 ****               0 ****  **** 
   2387  GLP           7159 ****               0 ****  **** 
   2388  GLP           7162 ****               0 ****  **** 
   2389  GLP           7165 ****               0 ****  **** 
   2390  GLP           7168 ****               0 ****  **** 
   2391  GLP           7171 ****               0 ****  **** 
   2392  GLP           7174 ****               0 ****  **** 
   2393  GLP           7177 ****               0 ****  **** 
   2394  GLP           7180 ****               0 ****  **** 
   2395  GLP           7183 ****               0 ****  **** 
   2396  GLP           7186 ****               0 ****  **** 
   2397  GLP           7189 ****               0 ****  **** 
   2398  GLP           7192 ****               0 ****  **** 
   2399  GLP           7195 ****               0 ****  **** 
   2400  GLP           7198 ****               0 ****  **** 
   2401  GLP           7201 ****               0 ****  **** 
   2402  GLP           7204 ****               0 ****  **** 
   2403  GLP           7207 ****               0 ****  **** 
   2404  GLP           7210 ****               0 ****  **** 
   2405  GLP           7213 ****               0 ****  **** 
   2406  GLP           7216 ****               0 ****  **** 
   2407  GLP           7219 ****               0 ****  **** 
   2408  GLP           7222 ****               0 ****  **** 
   2409  GLP           7225 ****               0 ****  **** 
   2410  GLP           7228 ****               0 ****  **** 
   2411  GLP           7231 ****               0 ****  **** 
   2412  GLP           7234 ****               0 ****  **** 
   2413  GLP           7237 ****               0 ****  **** 
   2414  GLP           7240 ****               0 ****  **** 
   2415  GLP           7243 ****               0 ****  **** 
   2416  GLP           7246 ****               0 ****  **** 
   2417  GLP           7249 ****               0 ****  **** 
   2418  GLP           7252 ****               0 ****  **** 
   2419  GLP           7255 ****               0 ****  **** 
   2420  GLP           7258 ****               0 ****  **** 
   2421  GLP           7261 ****               0 ****  **** 
   2422  GLP           7264 ****               0 ****  **** 
   2423  GLP           7267 ****               0 ****  **** 
   2424  GLP           7270 ****               0 ****  **** 
   2425  GLP           7273 ****               0 ****  **** 
   2426  GLP           7276 ****               0 ****  **** 
   2427  GLP           7279 ****               0 ****  **** 
   2428  GLP           7282 ****               0 ****  **** 
   2429  GLP           7285 ****               0 ****  **** 
   2430  GLP           7288 ****               0 ****  **** 
   2431  GLP           7291 ****               0 ****  **** 
   2432  GLP           7294 ****               0 ****  **** 
   2433  GLP           7297 ****               0 ****  **** 
   2434  GLP           7300 ****               0 ****  **** 
   2435  GLP           7303 ****               0 ****  **** 
   2436  GLP           7306 ****               0 ****  **** 
   2437  GLP           7309 ****               0 ****  **** 
   2438  GLP           7312 ****               0 ****  **** 
   2439  GLP           7315 ****               0 ****  **** 
   2440  GLP           7318 ****               0 ****  **** 
   2441  GLP           7321 ****               0 ****  **** 
   2442  GLP           7324 ****               0 ****  **** 
   2443  GLP           7327 ****               0 ****  **** 
   2444  GLP           7330 ****               0 ****  **** 
   2445  GLP           7333 ****               0 ****  **** 
   2446  GLP           7336 ****               0 ****  **** 
   2447  GLP           7339 ****               0 ****  **** 
   2448  GLP           7342 ****               0 ****  **** 
   2449  GLP           7345 ****               0 ****  **** 
   2450  GLP           7348 ****               0 ****  **** 
   2451  GLP           7351 ****               0 ****  **** 
   2452  GLP           7354 ****               0 ****  **** 
   2453  GLP           7357 ****               0 ****  **** 
   2454  GLP           7360 ****               0 ****  **** 
   2455  GLP           7363 ****               0 ****  **** 
   2456  GLP           7366 ****               0 ****  **** 
   2457  GLP           7369 ****               0 ****  **** 
   2458  GLP           7372 ****               0 ****  **** 
   2459  GLP           7375 ****               0 ****  **** 
   2460  GLP           7378 ****               0 ****  **** 
   2461  GLP           7381 ****               0 ****  **** 
   2462  GLP           7384 ****               0 ****  **** 
   2463  GLP           7387 ****               0 ****  **** 
   2464  GLP           7390 ****               0 ****  **** 
   2465  GLP           7393 ****               0 ****  **** 
   2466  GLP           7396 ****               0 ****  **** 
   2467  GLP           7399 ****               0 ****  **** 
   2468  GLP           7402 ****               0 ****  **** 
   2469  GLP           7405 ****               0 ****  **** 
   2470  GLP           7408 ****               0 ****  **** 
   2471  GLP           7411 ****               0 ****  **** 
   2472  GLP           7414 ****               0 ****  **** 
   2473  GLP           7417 ****               0 ****  **** 
   2474  GLP           7420 ****               0 ****  **** 
   2475  GLP           7423 ****               0 ****  **** 
   2476  GLP           7426 ****               0 ****  **** 
   2477  GLP           7429 ****               0 ****  **** 
   2478  GLP           7432 ****               0 ****  **** 
   2479  GLP           7435 ****               0 ****  **** 
   2480  GLP           7438 ****               0 ****  **** 
   2481  GLP           7441 ****               0 ****  **** 
   2482  GLP           7444 ****               0 ****  **** 
   2483  GLP           7447 ****               0 ****  **** 
   2484  GLP           7450 ****               0 ****  **** 
   2485  GLP           7453 ****               0 ****  **** 
   2486  GLP           7456 ****               0 ****  **** 
   2487  GLP           7459 ****               0 ****  **** 
   2488  GLP           7462 ****               0 ****  **** 
   2489  GLP           7465 ****               0 ****  **** 
   2490  GLP           7468 ****               0 ****  **** 
   2491  GLP           7471 ****               0 ****  **** 
   2492  GLP           7474 ****               0 ****  **** 
   2493  GLP           7477 ****               0 ****  **** 
   2494  GLP           7480 ****               0 ****  **** 
   2495  GLP           7483 ****               0 ****  **** 
   2496  GLP           7486 ****               0 ****  **** 
   2497  GLP           7489 ****               0 ****  **** 
   2498  GLP           7492 ****               0 ****  **** 
   2499  GLP           7495 ****               0 ****  **** 
   2500  GLP           7498 ****               0 ****  **** 
   2501  GLP           7501 ****               0 ****  **** 
   2502  GLP           7504 ****               0 ****  **** 
   2503  GLP           7507 ****               0 ****  **** 
   2504  GLP           7510 ****               0 ****  **** 
   2505  GLP           7513 ****               0 ****  **** 
   2506  GLP           7516 ****               0 ****  **** 
   2507  GLP           7519 ****               0 ****  **** 
   2508  GLP           7522 ****               0 ****  **** 
   2509  GLP           7525 ****               0 ****  **** 
   2510  GLP           7528 ****               0 ****  **** 
   2511  GLP           7531 ****               0 ****  **** 
   2512  GLP           7534 ****               0 ****  **** 
   2513  GLP           7537 ****               0 ****  **** 
   2514  GLP           7540 ****               0 ****  **** 
   2515  GLP           7543 ****               0 ****  **** 
   2516  GLP           7546 ****               0 ****  **** 
   2517  GLP           7549 ****               0 ****  **** 
   2518  GLP           7552 ****               0 ****  **** 
   2519  GLP           7555 ****               0 ****  **** 
   2520  GLP           7558 ****               0 ****  **** 
   2521  GLP           7561 ****               0 ****  **** 
   2522  GLP           7564 ****               0 ****  **** 
   2523  GLP           7567 ****               0 ****  **** 
   2524  GLP           7570 ****               0 ****  **** 
   2525  GLP           7573 ****               0 ****  **** 
   2526  GLP           7576 ****               0 ****  **** 
   2527  GLP           7579 ****               0 ****  **** 
   2528  GLP           7582 ****               0 ****  **** 
   2529  GLP           7585 ****               0 ****  **** 
   2530  GLP           7588 ****               0 ****  **** 
   2531  GLP           7591 ****               0 ****  **** 
   2532  GLP           7594 ****               0 ****  **** 
   2533  GLP           7597 ****               0 ****  **** 
   2534  GLP           7600 ****               0 ****  **** 
   2535  GLP           7603 ****               0 ****  **** 
   2536  GLP           7606 ****               0 ****  **** 
   2537  GLP           7609 ****               0 ****  **** 
   2538  GLP           7612 ****               0 ****  **** 
   2539  GLP           7615 ****               0 ****  **** 
   2540  GLP           7618 ****               0 ****  **** 
   2541  GLP           7621 ****               0 ****  **** 
   2542  GLP           7624 ****               0 ****  **** 
   2543  GLP           7627 ****               0 ****  **** 
   2544  GLP           7630 ****               0 ****  **** 
   2545  GLP           7633 ****               0 ****  **** 
   2546  GLP           7636 ****               0 ****  **** 
   2547  GLP           7639 ****               0 ****  **** 
   2548  GLP           7642 ****               0 ****  **** 
   2549  GLP           7645 ****               0 ****  **** 
   2550  GLP           7648 ****               0 ****  **** 
   2551  GLP           7651 ****               0 ****  **** 
   2552  GLP           7654 ****               0 ****  **** 
   2553  GLP           7657 ****               0 ****  **** 
   2554  GLP           7660 ****               0 ****  **** 
   2555  GLP           7663 ****               0 ****  **** 
   2556  GLP           7666 ****               0 ****  **** 
   2557  GLP           7669 ****               0 ****  **** 
   2558  GLP           7672 ****               0 ****  **** 
   2559  GLP           7675 ****               0 ****  **** 
   2560  GLP           7678 ****               0 ****  **** 
   2561  GLP           7681 ****               0 ****  **** 
   2562  GLP           7684 ****               0 ****  **** 
   2563  GLP           7687 ****               0 ****  **** 
   2564  GLP           7690 ****               0 ****  **** 
   2565  GLP           7693 ****               0 ****  **** 
   2566  GLP           7696 ****               0 ****  **** 
   2567  GLP           7699 ****               0 ****  **** 
   2568  GLP           7702 ****               0 ****  **** 
   2569  GLP           7705 ****               0 ****  **** 
   2570  GLP           7708 ****               0 ****  **** 
   2571  GLP           7711 ****               0 ****  **** 
   2572  GLP           7714 ****               0 ****  **** 
   2573  GLP           7717 ****               0 ****  **** 
   2574  GLP           7720 ****               0 ****  **** 
   2575  GLP           7723 ****               0 ****  **** 
   2576  GLP           7726 ****               0 ****  **** 
   2577  GLP           7729 ****               0 ****  **** 
   2578  GLP           7732 ****               0 ****  **** 
   2579  GLP           7735 ****               0 ****  **** 
   2580  GLP           7738 ****               0 ****  **** 
   2581  GLP           7741 ****               0 ****  **** 
   2582  GLP           7744 ****               0 ****  **** 
   2583  GLP           7747 ****               0 ****  **** 
   2584  GLP           7750 ****               0 ****  **** 
   2585  GLP           7753 ****               0 ****  **** 
   2586  GLP           7756 ****               0 ****  **** 
   2587  GLP           7759 ****               0 ****  **** 
   2588  GLP           7762 ****               0 ****  **** 
   2589  GLP           7765 ****               0 ****  **** 
   2590  GLP           7768 ****               0 ****  **** 
   2591  GLP           7771 ****               0 ****  **** 
   2592  GLP           7774 ****               0 ****  **** 
   2593  GLP           7777 ****               0 ****  **** 
   2594  GLP           7780 ****               0 ****  **** 
   2595  GLP           7783 ****               0 ****  **** 
   2596  GLP           7786 ****               0 ****  **** 
   2597  GLP           7789 ****               0 ****  **** 
   2598  GLP           7792 ****               0 ****  **** 
   2599  GLP           7795 ****               0 ****  **** 
   2600  GLP           7798 ****               0 ****  **** 
   2601  GLP           7801 ****               0 ****  **** 
   2602  GLP           7804 ****               0 ****  **** 
   2603  GLP           7807 ****               0 ****  **** 
   2604  GLP           7810 ****               0 ****  **** 
   2605  GLP           7813 ****               0 ****  **** 
   2606  GLP           7816 ****               0 ****  **** 
   2607  GLP           7819 ****               0 ****  **** 
   2608  GLP           7822 ****               0 ****  **** 
   2609  GLP           7825 ****               0 ****  **** 
   2610  GLP           7828 ****               0 ****  **** 
   2611  GLP           7831 ****               0 ****  **** 
   2612  GLP           7834 ****               0 ****  **** 
   2613  GLP           7837 ****               0 ****  **** 
   2614  GLP           7840 ****               0 ****  **** 
   2615  GLP           7843 ****               0 ****  **** 
   2616  GLP           7846 ****               0 ****  **** 
   2617  GLP           7849 ****               0 ****  **** 
   2618  GLP           7852 ****               0 ****  **** 
   2619  GLP           7855 ****               0 ****  **** 
   2620  GLP           7858 ****               0 ****  **** 
   2621  GLP           7861 ****               0 ****  **** 
   2622  GLP           7864 ****               0 ****  **** 
   2623  GLP           7867 ****               0 ****  **** 
   2624  GLP           7870 ****               0 ****  **** 
   2625  GLP           7873 ****               0 ****  **** 
   2626  GLP           7876 ****               0 ****  **** 
   2627  GLP           7879 ****               0 ****  **** 
   2628  GLP           7882 ****               0 ****  **** 
   2629  GLP           7885 ****               0 ****  **** 
   2630  GLP           7888 ****               0 ****  **** 
   2631  GLP           7891 ****               0 ****  **** 
   2632  GLP           7894 ****               0 ****  **** 
   2633  GLP           7897 ****               0 ****  **** 
   2634  GLP           7900 ****               0 ****  **** 
   2635  GLP           7903 ****               0 ****  **** 
   2636  GLP           7906 ****               0 ****  **** 
   2637  GLP           7909 ****               0 ****  **** 
   2638  GLP           7912 ****               0 ****  **** 
   2639  GLP           7915 ****               0 ****  **** 
   2640  GLP           7918 ****               0 ****  **** 
   2641  GLP           7921 ****               0 ****  **** 
   2642  GLP           7924 ****               0 ****  **** 
   2643  GLP           7927 ****               0 ****  **** 
   2644  GLP           7930 ****               0 ****  **** 
   2645  GLP           7933 ****               0 ****  **** 
   2646  GLP           7936 ****               0 ****  **** 
   2647  GLP           7939 ****               0 ****  **** 
   2648  GLP           7942 ****               0 ****  **** 
   2649  GLP           7945 ****               0 ****  **** 
   2650  GLP           7948 ****               0 ****  **** 
   2651  GLP           7951 ****               0 ****  **** 
   2652  GLP           7954 ****               0 ****  **** 
   2653  GLP           7957 ****               0 ****  **** 
   2654  GLP           7960 ****               0 ****  **** 
   2655  GLP           7963 ****               0 ****  **** 
   2656  GLP           7966 ****               0 ****  **** 
   2657  GLP           7969 ****               0 ****  **** 
   2658  GLP           7972 ****               0 ****  **** 
   2659  GLP           7975 ****               0 ****  **** 
   2660  GLP           7978 ****               0 ****  **** 
   2661  GLP           7981 ****               0 ****  **** 
   2662  GLP           7984 ****               0 ****  **** 
   2663  GLP           7987 ****               0 ****  **** 
   2664  GLP           7990 ****               0 ****  **** 
   2665  GLP           7993 ****               0 ****  **** 
   2666  GLP           7996 ****               0 ****  **** 
   2667  GLP           7999 ****               0 ****  **** 
   2668  GLP           8002 ****               0 ****  **** 
   2669  GLP           8005 ****               0 ****  **** 
   2670  GLP           8008 ****               0 ****  **** 
   2671  GLP           8011 ****               0 ****  **** 
   2672  GLP           8014 ****               0 ****  **** 
   2673  GLP           8017 ****               0 ****  **** 
   2674  GCA           8020 ****               0 ****  **** 
   2675  GCA           8023 ****               0 ****  **** 
   2676  GCA           8026 ****               0 ****  **** 
   2677  GCA           8029 ****               0 ****  **** 
   2678  GCA           8032 ****               0 ****  **** 
   2679  GCA           8035 ****               0 ****  **** 
   2680  GCA           8038 ****               0 ****  **** 
   2681  GCA           8041 ****               0 ****  **** 
   2682  GCA           8044 ****               0 ****  **** 
   2683  GCA           8047 ****               0 ****  **** 
   2684  GCA           8050 ****               0 ****  **** 
   2685  GCA           8053 ****               0 ****  **** 
   2686  GCA           8056 ****               0 ****  **** 
   2687  GCA           8059 ****               0 ****  **** 
   2688  GCA           8062 ****               0 ****  **** 
   2689  GCA           8065 ****               0 ****  **** 
   2690  GCA           8068 ****               0 ****  **** 
   2691  GCA           8071 ****               0 ****  **** 
   2692  GCA           8074 ****               0 ****  **** 
   2693  GCA           8077 ****               0 ****  **** 
   2694  GCA           8080 ****               0 ****  **** 
   2695  GCA           8083 ****               0 ****  **** 
   2696  GCA           8086 ****               0 ****  **** 
   2697  GCA           8089 ****               0 ****  **** 
   2698  GCA           8092 ****               0 ****  **** 
   2699  GCA           8095 ****               0 ****  **** 
   2700  GCA           8098 ****               0 ****  **** 
   2701  GCA           8101 ****               0 ****  **** 
   2702  GCA           8104 ****               0 ****  **** 
   2703  GCA           8107 ****               0 ****  **** 
   2704  GCA           8110 ****               0 ****  **** 
   2705  GCA           8113 ****               0 ****  **** 
   2706  GCA           8116 ****               0 ****  **** 
   2707  GCA           8119 ****               0 ****  **** 
   2708  GCA           8122 ****               0 ****  **** 
   2709  GCA           8125 ****               0 ****  **** 
   2710  GCA           8128 ****               0 ****  **** 
   2711  GCA           8131 ****               0 ****  **** 
   2712  GCA           8134 ****               0 ****  **** 
   2713  GCA           8137 ****               0 ****  **** 
   2714  GCA           8140 ****               0 ****  **** 
   2715  GCA           8143 ****               0 ****  **** 
   2716  GCA           8146 ****               0 ****  **** 
   2717  GCA           8149 ****               0 ****  **** 
   2718  GCA           8152 ****               0 ****  **** 
   2719  GCA           8155 ****               0 ****  **** 
   2720  GCA           8158 ****               0 ****  **** 
   2721  GCA           8161 ****               0 ****  **** 
   2722  GCA           8164 ****               0 ****  **** 
   2723  GCA           8167 ****               0 ****  **** 
   2724  GCA           8170 ****               0 ****  **** 
   2725  GCA           8173 ****               0 ****  **** 
   2726  GCA           8176 ****               0 ****  **** 
   2727  GCA           8179 ****               0 ****  **** 
   2728  GCA           8182 ****               0 ****  **** 
   2729  GCA           8185 ****               0 ****  **** 
   2730  GCA           8188 ****               0 ****  **** 
   2731  GCA           8191 ****               0 ****  **** 
   2732  GCA           8194 ****               0 ****  **** 
   2733  GCA           8197 ****               0 ****  **** 
   2734  GCA           8200 ****               0 ****  **** 
   2735  GCA           8203 ****               0 ****  **** 
   2736  GCA           8206 ****               0 ****  **** 
   2737  GCA           8209 ****               0 ****  **** 
   2738  GCA           8212 ****               0 ****  **** 
   2739  GCA           8215 ****               0 ****  **** 
   2740  GCA           8218 ****               0 ****  **** 
   2741  GCA           8221 ****               0 ****  **** 
   2742  GCA           8224 ****               0 ****  **** 
   2743  GCA           8227 ****               0 ****  **** 
   2744  GCA           8230 ****               0 ****  **** 
   2745  GCA           8233 ****               0 ****  **** 
   2746  GCA           8236 ****               0 ****  **** 
   2747  GCA           8239 ****               0 ****  **** 
   2748  GCA           8242 ****               0 ****  **** 
   2749  GCA           8245 ****               0 ****  **** 
   2750  GCA           8248 ****               0 ****  **** 
   2751  GCA           8251 ****               0 ****  **** 
   2752  GCA           8254 ****               0 ****  **** 
   2753  GCA           8257 ****               0 ****  **** 
   2754  GCA           8260 ****               0 ****  **** 
   2755  GCA           8263 ****               0 ****  **** 
   2756  GCA           8266 ****               0 ****  **** 
   2757  GCA           8269 ****               0 ****  **** 
   2758  GCA           8272 ****               0 ****  **** 
   2759  GCA           8275 ****               0 ****  **** 
   2760  GCA           8278 ****               0 ****  **** 
   2761  GCA           8281 ****               0 ****  **** 
   2762  GCA           8284 ****               0 ****  **** 
   2763  GCA           8287 ****               0 ****  **** 
   2764  GCA           8290 ****               0 ****  **** 
   2765  GCA           8293 ****               0 ****  **** 
   2766  GCA           8296 ****               0 ****  **** 
   2767  GCA           8299 ****               0 ****  **** 
   2768  GCA           8302 ****               0 ****  **** 
   2769  GCA           8305 ****               0 ****  **** 
   2770  GCA           8308 ****               0 ****  **** 
   2771  GCA           8311 ****               0 ****  **** 
   2772  GCA           8314 ****               0 ****  **** 
   2773  GCA           8317 ****               0 ****  **** 
   2774  GCA           8320 ****               0 ****  **** 
   2775  GCA           8323 ****               0 ****  **** 
   2776  GCA           8326 ****               0 ****  **** 
   2777  GCA           8329 ****               0 ****  **** 
   2778  GCA           8332 ****               0 ****  **** 
   2779  GCA           8335 ****               0 ****  **** 
   2780  GCA           8338 ****               0 ****  **** 
   2781  GCA           8341 ****               0 ****  **** 
   2782  GCA           8344 ****               0 ****  **** 
   2783  GCA           8347 ****               0 ****  **** 
   2784  GCA           8350 ****               0 ****  **** 
   2785  GCA           8353 ****               0 ****  **** 
   2786  GCA           8356 ****               0 ****  **** 
   2787  GCA           8359 ****               0 ****  **** 
   2788  GCA           8362 ****               0 ****  **** 
   2789  GCA           8365 ****               0 ****  **** 
   2790  GCA           8368 ****               0 ****  **** 
   2791  GCA           8371 ****               0 ****  **** 
   2792  GCA           8374 ****               0 ****  **** 
   2793  GCA           8377 ****               0 ****  **** 
   2794  GCA           8380 ****               0 ****  **** 
   2795  GCA           8383 ****               0 ****  **** 
   2796  GCA           8386 ****               0 ****  **** 
   2797  GCA           8389 ****               0 ****  **** 
   2798  GCA           8392 ****               0 ****  **** 
   2799  GCA           8395 ****               0 ****  **** 
   2800  GCA           8398 ****               0 ****  **** 
   2801  GCA           8401 ****               0 ****  **** 
   2802  GCA           8404 ****               0 ****  **** 
   2803  GCA           8407 ****               0 ****  **** 
   2804  GCA           8410 ****               0 ****  **** 
   2805  GCA           8413 ****               0 ****  **** 
   2806  GCA           8416 ****               0 ****  **** 
   2807  GCA           8419 ****               0 ****  **** 
   2808  GCA           8422 ****               0 ****  **** 
   2809  GCA           8425 ****               0 ****  **** 
   2810  GCA           8428 ****               0 ****  **** 
   2811  GCA           8431 ****               0 ****  **** 
   2812  GCA           8434 ****               0 ****  **** 
   2813  GCA           8437 ****               0 ****  **** 
   2814  GCA           8440 ****               0 ****  **** 
   2815  GCA           8443 ****               0 ****  **** 
   2816  GCA           8446 ****               0 ****  **** 
   2817  GCA           8449 ****               0 ****  **** 
   2818  GCA           8452 ****               0 ****  **** 
   2819  GCA           8455 ****               0 ****  **** 
   2820  GCA           8458 ****               0 ****  **** 
   2821  GCA           8461 ****               0 ****  **** 
   2822  GCA           8464 ****               0 ****  **** 
   2823  GCA           8467 ****               0 ****  **** 
   2824  GCA           8470 ****               0 ****  **** 
   2825  GCA           8473 ****               0 ****  **** 
   2826  GCA           8476 ****               0 ****  **** 
   2827  GCA           8479 ****               0 ****  **** 
   2828  GCA           8482 ****               0 ****  **** 
   2829  GCA           8485 ****               0 ****  **** 
   2830  GCA           8488 ****               0 ****  **** 
   2831  GCA           8491 ****               0 ****  **** 
   2832  GCA           8494 ****               0 ****  **** 
   2833  GCA           8497 ****               0 ****  **** 
   2834  GCA           8500 ****               0 ****  **** 
   2835  GCA           8503 ****               0 ****  **** 
   2836  GCA           8506 ****               0 ****  **** 
   2837  GCA           8509 ****               0 ****  **** 
   2838  GCA           8512 ****               0 ****  **** 
   2839  GCA           8515 ****               0 ****  **** 
   2840  GCA           8518 ****               0 ****  **** 
   2841  GCA           8521 ****               0 ****  **** 
   2842  GCA           8524 ****               0 ****  **** 
   2843  GCA           8527 ****               0 ****  **** 
   2844  GCA           8530 ****               0 ****  **** 
   2845  GCA           8533 ****               0 ****  **** 
   2846  GCA           8536 ****               0 ****  **** 
   2847  GCA           8539 ****               0 ****  **** 
   2848  GCA           8542 ****               0 ****  **** 
   2849  GCA           8545 ****               0 ****  **** 
   2850  GCA           8548 ****               0 ****  **** 
   2851  GCA           8551 ****               0 ****  **** 
   2852  GCA           8554 ****               0 ****  **** 
   2853  GCA           8557 ****               0 ****  **** 
   2854  GCA           8560 ****               0 ****  **** 
   2855  GCA           8563 ****               0 ****  **** 
   2856  GCA           8566 ****               0 ****  **** 
   2857  GCA           8569 ****               0 ****  **** 
   2858  GCA           8572 ****               0 ****  **** 
   2859  GCA           8575 ****               0 ****  **** 
   2860  GCA           8578 ****               0 ****  **** 
   2861  GCA           8581 ****               0 ****  **** 
   2862  GCA           8584 ****               0 ****  **** 
   2863  GCA           8587 ****               0 ****  **** 
   2864  GCA           8590 ****               0 ****  **** 
   2865  GCA           8593 ****               0 ****  **** 
   2866  GCA           8596 ****               0 ****  **** 
   2867  GCA           8599 ****               0 ****  **** 
   2868  GCA           8602 ****               0 ****  **** 
   2869  GCA           8605 ****               0 ****  **** 
   2870  GCA           8608 ****               0 ****  **** 
   2871  GCA           8611 ****               0 ****  **** 
   2872  GCA           8614 ****               0 ****  **** 
   2873  GCA           8617 ****               0 ****  **** 
   2874  GCA           8620 ****               0 ****  **** 
   2875  GCA           8623 ****               0 ****  **** 
   2876  GCA           8626 ****               0 ****  **** 
   2877  GCA           8629 ****               0 ****  **** 
   2878  GCA           8632 ****               0 ****  **** 
   2879  GCA           8635 ****               0 ****  **** 
   2880  GCA           8638 ****               0 ****  **** 
   2881  GCA           8641 ****               0 ****  **** 
   2882  GCA           8644 ****               0 ****  **** 
   2883  GCA           8647 ****               0 ****  **** 
   2884  GCA           8650 ****               0 ****  **** 
   2885  GCA           8653 ****               0 ****  **** 
   2886  GCA           8656 ****               0 ****  **** 
   2887  GCA           8659 ****               0 ****  **** 
   2888  GCA           8662 ****               0 ****  **** 
   2889  GCA           8665 ****               0 ****  **** 
   2890  GCA           8668 ****               0 ****  **** 
   2891  GCA           8671 ****               0 ****  **** 
   2892  GCA           8674 ****               0 ****  **** 
   2893  GCA           8677 ****               0 ****  **** 
   2894  GCA           8680 ****               0 ****  **** 
   2895  GCA           8683 ****               0 ****  **** 
   2896  GCA           8686 ****               0 ****  **** 
   2897  GCA           8689 ****               0 ****  **** 
   2898  GCA           8692 ****               0 ****  **** 
   2899  GCA           8695 ****               0 ****  **** 
   2900  GCA           8698 ****               0 ****  **** 
   2901  GCA           8701 ****               0 ****  **** 
   2902  GCA           8704 ****               0 ****  **** 
   2903  GCA           8707 ****               0 ****  **** 
   2904  GCA           8710 ****               0 ****  **** 
   2905  GCA           8713 ****               0 ****  **** 
   2906  GCA           8716 ****               0 ****  **** 
   2907  GCA           8719 ****               0 ****  **** 
   2908  GCA           8722 ****               0 ****  **** 
   2909  GCA           8725 ****               0 ****  **** 
   2910  GCA           8728 ****               0 ****  **** 
   2911  GCA           8731 ****               0 ****  **** 
   2912  GCA           8734 ****               0 ****  **** 
   2913  GCA           8737 ****               0 ****  **** 
   2914  GCA           8740 ****               0 ****  **** 
   2915  GCA           8743 ****               0 ****  **** 
   2916  GCA           8746 ****               0 ****  **** 
   2917  GCA           8749 ****               0 ****  **** 
   2918  GCA           8752 ****               0 ****  **** 
   2919  GCA           8755 ****               0 ****  **** 
   2920  GCA           8758 ****               0 ****  **** 
   2921  GCA           8761 ****               0 ****  **** 
   2922  GCA           8764 ****               0 ****  **** 
   2923  GCA           8767 ****               0 ****  **** 
   2924  GCA           8770 ****               0 ****  **** 
   2925  GCA           8773 ****               0 ****  **** 
   2926  GCA           8776 ****               0 ****  **** 
   2927  GCA           8779 ****               0 ****  **** 
   2928  GCA           8782 ****               0 ****  **** 
   2929  GCA           8785 ****               0 ****  **** 
   2930  GCA           8788 ****               0 ****  **** 
   2931  GCA           8791 ****               0 ****  **** 
   2932  GCA           8794 ****               0 ****  **** 
   2933  GCA           8797 ****               0 ****  **** 
   2934  GCA           8800 ****               0 ****  **** 
   2935  GCA           8803 ****               0 ****  **** 
   2936  GCA           8806 ****               0 ****  **** 
   2937  GCA           8809 ****               0 ****  **** 
   2938  GCA           8812 ****               0 ****  **** 
   2939  GCA           8815 ****               0 ****  **** 
   2940  GCA           8818 ****               0 ****  **** 
   2941  GCA           8821 ****               0 ****  **** 
   2942  GCA           8824 ****               0 ****  **** 
   2943  GCA           8827 ****               0 ****  **** 
   2944  GCA           8830 ****               0 ****  **** 
   2945  GCA           8833 ****               0 ****  **** 
   2946  GCA           8836 ****               0 ****  **** 
   2947  GCA           8839 ****               0 ****  **** 
   2948  GCA           8842 ****               0 ****  **** 
   2949  GCA           8845 ****               0 ****  **** 
   2950  GCA           8848 ****               0 ****  **** 
   2951  GCA           8851 ****               0 ****  **** 
   2952  GCA           8854 ****               0 ****  **** 
   2953  GCA           8857 ****               0 ****  **** 
   2954  GCA           8860 ****               0 ****  **** 
   2955  GCA           8863 ****               0 ****  **** 
   2956  GCA           8866 ****               0 ****  **** 
   2957  GCA           8869 ****               0 ****  **** 
   2958  GCA           8872 ****               0 ****  **** 
   2959  GCA           8875 ****               0 ****  **** 
   2960  GCA           8878 ****               0 ****  **** 
   2961  GCA           8881 ****               0 ****  **** 
   2962  GCA           8884 ****               0 ****  **** 
   2963  GCA           8887 ****               0 ****  **** 
   2964  GCA           8890 ****               0 ****  **** 
   2965  GCA           8893 ****               0 ****  **** 
   2966  GCA           8896 ****               0 ****  **** 
   2967  GCA           8899 ****               0 ****  **** 
   2968  GCA           8902 ****               0 ****  **** 
   2969  GCA           8905 ****               0 ****  **** 
   2970  GCA           8908 ****               0 ****  **** 
   2971  GCA           8911 ****               0 ****  **** 
   2972  GCA           8914 ****               0 ****  **** 
   2973  GCA           8917 ****               0 ****  **** 
   2974  GCA           8920 ****               0 ****  **** 
   2975  GCA           8923 ****               0 ****  **** 
   2976  GCA           8926 ****               0 ****  **** 
   2977  GCA           8929 ****               0 ****  **** 
   2978  GCA           8932 ****               0 ****  **** 
   2979  GCA           8935 ****               0 ****  **** 
   2980  GCA           8938 ****               0 ****  **** 
   2981  GCA           8941 ****               0 ****  **** 
   2982  GCA           8944 ****               0 ****  **** 
   2983  GCA           8947 ****               0 ****  **** 
   2984  GCA           8950 ****               0 ****  **** 
   2985  GCA           8953 ****               0 ****  **** 
   2986  GCA           8956 ****               0 ****  **** 
   2987  GCA           8959 ****               0 ****  **** 
   2988  GCA           8962 ****               0 ****  **** 
   2989  GCA           8965 ****               0 ****  **** 
   2990  GCA           8968 ****               0 ****  **** 
   2991  GCA           8971 ****               0 ****  **** 
   2992  GCA           8974 ****               0 ****  **** 
   2993  GCA           8977 ****               0 ****  **** 
   2994  GCA           8980 ****               0 ****  **** 
   2995  GCA           8983 ****               0 ****  **** 
   2996  GCA           8986 ****               0 ****  **** 
   2997  GCA           8989 ****               0 ****  **** 
   2998  GCA           8992 ****               0 ****  **** 
   2999  GCA           8995 ****               0 ****  **** 
   3000  GCA           8998 ****               0 ****  **** 
   3001  GCA           9001 ****               0 ****  **** 
   3002  GCA           9004 ****               0 ****  **** 
   3003  GCA           9007 ****               0 ****  **** 
   3004  GCA           9010 ****               0 ****  **** 
   3005  GCA           9013 ****               0 ****  **** 
   3006  GCA           9016 ****               0 ****  **** 
   3007  GCA           9019 ****               0 ****  **** 
   3008  GCA           9022 ****               0 ****  **** 
   3009  GCA           9025 ****               0 ****  **** 
   3010  GCA           9028 ****               0 ****  **** 
   3011  GCA           9031 ****               0 ****  **** 
   3012  GCA           9034 ****               0 ****  **** 
   3013  GCA           9037 ****               0 ****  **** 
   3014  GCA           9040 ****               0 ****  **** 
   3015  GCA           9043 ****               0 ****  **** 
   3016  GCA           9046 ****               0 ****  **** 
   3017  GCA           9049 ****               0 ****  **** 
   3018  GCA           9052 ****               0 ****  **** 
   3019  GCA           9055 ****               0 ****  **** 
   3020  GCA           9058 ****               0 ****  **** 
   3021  GCA           9061 ****               0 ****  **** 
   3022  GCA           9064 ****               0 ****  **** 
   3023  GCA           9067 ****               0 ****  **** 
   3024  GCA           9070 ****               0 ****  **** 
   3025  GCA           9073 ****               0 ****  **** 
   3026  GCA           9076 ****               0 ****  **** 
   3027  GCA           9079 ****               0 ****  **** 
   3028  GCA           9082 ****               0 ****  **** 
   3029  GCA           9085 ****               0 ****  **** 
   3030  GCA           9088 ****               0 ****  **** 
   3031  GCA           9091 ****               0 ****  **** 
   3032  GCA           9094 ****               0 ****  **** 
   3033  GCA           9097 ****               0 ****  **** 
   3034  GCA           9100 ****               0 ****  **** 
   3035  GCA           9103 ****               0 ****  **** 
   3036  GCA           9106 ****               0 ****  **** 
   3037  GCA           9109 ****               0 ****  **** 
   3038  GCA           9112 ****               0 ****  **** 
   3039  GCA           9115 ****               0 ****  **** 
   3040  GCA           9118 ****               0 ****  **** 
   3041  GCA           9121 ****               0 ****  **** 
   3042  GCA           9124 ****               0 ****  **** 
   3043  GCA           9127 ****               0 ****  **** 
   3044  GCA           9130 ****               0 ****  **** 
   3045  GCA           9133 ****               0 ****  **** 
   3046  GCA           9136 ****               0 ****  **** 
   3047  GCA           9139 ****               0 ****  **** 
   3048  GCA           9142 ****               0 ****  **** 
   3049  GCA           9145 ****               0 ****  **** 
   3050  GCA           9148 ****               0 ****  **** 
   3051  GCA           9151 ****               0 ****  **** 
   3052  GCA           9154 ****               0 ****  **** 
   3053  GCA           9157 ****               0 ****  **** 
   3054  GCA           9160 ****               0 ****  **** 
   3055  GCA           9163 ****               0 ****  **** 
   3056  GCA           9166 ****               0 ****  **** 
   3057  GCA           9169 ****               0 ****  **** 
   3058  GCA           9172 ****               0 ****  **** 
   3059  GCA           9175 ****               0 ****  **** 
   3060  GCA           9178 ****               0 ****  **** 
   3061  GCA           9181 ****               0 ****  **** 
   3062  GCA           9184 ****               0 ****  **** 
   3063  GCA           9187 ****               0 ****  **** 
   3064  GCA           9190 ****               0 ****  **** 
   3065  GCA           9193 ****               0 ****  **** 
   3066  GCA           9196 ****               0 ****  **** 
   3067  GCA           9199 ****               0 ****  **** 
   3068  GCA           9202 ****               0 ****  **** 
   3069  GCA           9205 ****               0 ****  **** 
   3070  GCA           9208 ****               0 ****  **** 
   3071  GCA           9211 ****               0 ****  **** 
   3072  GCA           9214 ****               0 ****  **** 
   3073  GCA           9217 ****               0 ****  **** 
   3074  GCA           9220 ****               0 ****  **** 
   3075  GCA           9223 ****               0 ****  **** 
   3076  GCA           9226 ****               0 ****  **** 
   3077  GCA           9229 ****               0 ****  **** 
   3078  GCA           9232 ****               0 ****  **** 
   3079  GCA           9235 ****               0 ****  **** 
   3080  GCA           9238 ****               0 ****  **** 
   3081  GCA           9241 ****               0 ****  **** 
   3082  GCA           9244 ****               0 ****  **** 
   3083  GCA           9247 ****               0 ****  **** 
   3084  GCA           9250 ****               0 ****  **** 
   3085  GCA           9253 ****               0 ****  **** 
   3086  GCA           9256 ****               0 ****  **** 
   3087  GCA           9259 ****               0 ****  **** 
   3088  GCA           9262 ****               0 ****  **** 
   3089  GCA           9265 ****               0 ****  **** 
   3090  GCA           9268 ****               0 ****  **** 
   3091  GCA           9271 ****               0 ****  **** 
   3092  GCA           9274 ****               0 ****  **** 
   3093  GCA           9277 ****               0 ****  **** 
   3094  GCA           9280 ****               0 ****  **** 
   3095  GCA           9283 ****               0 ****  **** 
   3096  GCA           9286 ****               0 ****  **** 
   3097  GCA           9289 ****               0 ****  **** 
   3098  GCA           9292 ****               0 ****  **** 
   3099  GCA           9295 ****               0 ****  **** 
   3100  GCA           9298 ****               0 ****  **** 
   3101  GCA           9301 ****               0 ****  **** 
   3102  GCA           9304 ****               0 ****  **** 
   3103  GCA           9307 ****               0 ****  **** 
   3104  GCA           9310 ****               0 ****  **** 
   3105  GCA           9313 ****               0 ****  **** 
   3106  GCA           9316 ****               0 ****  **** 
   3107  GCA           9319 ****               0 ****  **** 
   3108  GCA           9322 ****               0 ****  **** 
   3109  GCA           9325 ****               0 ****  **** 
   3110  GCA           9328 ****               0 ****  **** 
   3111  GCA           9331 ****               0 ****  **** 
   3112  GCA           9334 ****               0 ****  **** 
   3113  GCA           9337 ****               0 ****  **** 
   3114  GCA           9340 ****               0 ****  **** 
   3115  GCA           9343 ****               0 ****  **** 
   3116  GCA           9346 ****               0 ****  **** 
   3117  GCA           9349 ****               0 ****  **** 
   3118  GCA           9352 ****               0 ****  **** 
   3119  GCA           9355 ****               0 ****  **** 
   3120  GCA           9358 ****               0 ****  **** 
   3121  GCA           9361 ****               0 ****  **** 
   3122  GCA           9364 ****               0 ****  **** 
   3123  GCA           9367 ****               0 ****  **** 
   3124  GCA           9370 ****               0 ****  **** 
   3125  GCA           9373 ****               0 ****  **** 
   3126  GCA           9376 ****               0 ****  **** 
   3127  GCA           9379 ****               0 ****  **** 
   3128  GCA           9382 ****               0 ****  **** 
   3129  GCA           9385 ****               0 ****  **** 
   3130  GCA           9388 ****               0 ****  **** 
   3131  GCA           9391 ****               0 ****  **** 
   3132  GCA           9394 ****               0 ****  **** 
   3133  GCA           9397 ****               0 ****  **** 
   3134  GCA           9400 ****               0 ****  **** 
   3135  GCA           9403 ****               0 ****  **** 
   3136  GCA           9406 ****               0 ****  **** 
   3137  GCA           9409 ****               0 ****  **** 
   3138  GCA           9412 ****               0 ****  **** 
   3139  GCA           9415 ****               0 ****  **** 
   3140  GCA           9418 ****               0 ****  **** 
   3141  GCA           9421 ****               0 ****  **** 
   3142  GCA           9424 ****               0 ****  **** 
   3143  GCA           9427 ****               0 ****  **** 
   3144  GCA           9430 ****               0 ****  **** 
   3145  GCA           9433 ****               0 ****  **** 
   3146  GCA           9436 ****               0 ****  **** 
   3147  GCA           9439 ****               0 ****  **** 
   3148  GCA           9442 ****               0 ****  **** 
   3149  GCA           9445 ****               0 ****  **** 
   3150  GCA           9448 ****               0 ****  **** 
   3151  GCA           9451 ****               0 ****  **** 
   3152  GCA           9454 ****               0 ****  **** 
   3153  GCA           9457 ****               0 ****  **** 
   3154  GCA           9460 ****               0 ****  **** 
   3155  GCA           9463 ****               0 ****  **** 
   3156  GCA           9466 ****               0 ****  **** 
   3157  GCA           9469 ****               0 ****  **** 
   3158  GCA           9472 ****               0 ****  **** 
   3159  GCA           9475 ****               0 ****  **** 
   3160  GCA           9478 ****               0 ****  **** 
   3161  GCA           9481 ****               0 ****  **** 
   3162  GCA           9484 ****               0 ****  **** 
   3163  GCA           9487 ****               0 ****  **** 
   3164  GCA           9490 ****               0 ****  **** 
   3165  GCA           9493 ****               0 ****  **** 
   3166  GCA           9496 ****               0 ****  **** 
   3167  GCA           9499 ****               0 ****  **** 
   3168  GCA           9502 ****               0 ****  **** 
   3169  GCA           9505 ****               0 ****  **** 
   3170  GCA           9508 ****               0 ****  **** 
   3171  GCA           9511 ****               0 ****  **** 
   3172  GCA           9514 ****               0 ****  **** 
   3173  GCA           9517 ****               0 ****  **** 
   3174  GCA           9520 ****               0 ****  **** 
   3175  GCA           9523 ****               0 ****  **** 
   3176  GCA           9526 ****               0 ****  **** 
   3177  GCA           9529 ****               0 ****  **** 
   3178  GCA           9532 ****               0 ****  **** 
   3179  GCA           9535 ****               0 ****  **** 
   3180  GCA           9538 ****               0 ****  **** 
   3181  GCA           9541 ****               0 ****  **** 
   3182  GCA           9544 ****               0 ****  **** 
   3183  GCA           9547 ****               0 ****  **** 
   3184  GCA           9550 ****               0 ****  **** 
   3185  GCA           9553 ****               0 ****  **** 
   3186  GCA           9556 ****               0 ****  **** 
   3187  GCA           9559 ****               0 ****  **** 
   3188  GCA           9562 ****               0 ****  **** 
   3189  GCA           9565 ****               0 ****  **** 
   3190  GCA           9568 ****               0 ****  **** 
   3191  GCA           9571 ****               0 ****  **** 
   3192  GCA           9574 ****               0 ****  **** 
   3193  GCA           9577 ****               0 ****  **** 
   3194  GCA           9580 ****               0 ****  **** 
   3195  GCA           9583 ****               0 ****  **** 
   3196  GCA           9586 ****               0 ****  **** 
   3197  GCA           9589 ****               0 ****  **** 
   3198  GCA           9592 ****               0 ****  **** 
   3199  GCA           9595 ****               0 ****  **** 
   3200  GCA           9598 ****               0 ****  **** 
   3201  GCA           9601 ****               0 ****  **** 
   3202  GCA           9604 ****               0 ****  **** 
   3203  GCA           9607 ****               0 ****  **** 
   3204  GCA           9610 ****               0 ****  **** 
   3205  GCA           9613 ****               0 ****  **** 
   3206  GCA           9616 ****               0 ****  **** 
   3207  GCA           9619 ****               0 ****  **** 
   3208  GCA           9622 ****               0 ****  **** 
   3209  GCA           9625 ****               0 ****  **** 
   3210  GCA           9628 ****               0 ****  **** 
   3211  GCA           9631 ****               0 ****  **** 
   3212  GCA           9634 ****               0 ****  **** 
   3213  GCA           9637 ****               0 ****  **** 
   3214  GCA           9640 ****               0 ****  **** 
   3215  GCA           9643 ****               0 ****  **** 
   3216  GCA           9646 ****               0 ****  **** 
   3217  GCA           9649 ****               0 ****  **** 
   3218  GCA           9652 ****               0 ****  **** 
   3219  GCA           9655 ****               0 ****  **** 
   3220  GCA           9658 ****               0 ****  **** 
   3221  GCA           9661 ****               0 ****  **** 
   3222  GCA           9664 ****               0 ****  **** 
   3223  GCA           9667 ****               0 ****  **** 
   3224  GCA           9670 ****               0 ****  **** 
   3225  GCA           9673 ****               0 ****  **** 
   3226  GCA           9676 ****               0 ****  **** 
   3227  GCA           9679 ****               0 ****  **** 
   3228  GCA           9682 ****               0 ****  **** 
   3229  GCA           9685 ****               0 ****  **** 
   3230  GCA           9688 ****               0 ****  **** 
   3231  GCA           9691 ****               0 ****  **** 
   3232  GCA           9694 ****               0 ****  **** 
   3233  GCA           9697 ****               0 ****  **** 
   3234  GCA           9700 ****               0 ****  **** 
   3235  GCA           9703 ****               0 ****  **** 
   3236  GCA           9706 ****               0 ****  **** 
   3237  GCA           9709 ****               0 ****  **** 
   3238  GCA           9712 ****               0 ****  **** 
   3239  GCA           9715 ****               0 ****  **** 
   3240  GCA           9718 ****               0 ****  **** 
   3241  GCA           9721 ****               0 ****  **** 
   3242  GCA           9724 ****               0 ****  **** 
   3243  GCA           9727 ****               0 ****  **** 
   3244  GCA           9730 ****               0 ****  **** 
   3245  GCA           9733 ****               0 ****  **** 
   3246  GCA           9736 ****               0 ****  **** 
   3247  GCA           9739 ****               0 ****  **** 
   3248  GCA           9742 ****               0 ****  **** 
   3249  GCA           9745 ****               0 ****  **** 
   3250  GCA           9748 ****               0 ****  **** 
   3251  GCA           9751 ****               0 ****  **** 
   3252  GCA           9754 ****               0 ****  **** 
   3253  GCA           9757 ****               0 ****  **** 
   3254  GCA           9760 ****               0 ****  **** 
   3255  GCA           9763 ****               0 ****  **** 
   3256  GCA           9766 ****               0 ****  **** 
   3257  GCA           9769 ****               0 ****  **** 
   3258  GCA           9772 ****               0 ****  **** 
   3259  GCA           9775 ****               0 ****  **** 
   3260  GCA           9778 ****               0 ****  **** 
   3261  GCA           9781 ****               0 ****  **** 
   3262  GCA           9784 ****               0 ****  **** 
   3263  GCA           9787 ****               0 ****  **** 
   3264  GCA           9790 ****               0 ****  **** 
   3265  GCA           9793 ****               0 ****  **** 
   3266  GCA           9796 ****               0 ****  **** 
   3267  GCA           9799 ****               0 ****  **** 
   3268  GCA           9802 ****               0 ****  **** 
   3269  GCA           9805 ****               0 ****  **** 
   3270  GCA           9808 ****               0 ****  **** 
   3271  GCA           9811 ****               0 ****  **** 
   3272  GCA           9814 ****               0 ****  **** 
   3273  GCA           9817 ****               0 ****  **** 
   3274  GCA           9820 ****               0 ****  **** 
   3275  GCA           9823 ****               0 ****  **** 
   3276  GCA           9826 ****               0 ****  **** 
   3277  GCA           9829 ****               0 ****  **** 
   3278  GCA           9832 ****               0 ****  **** 
   3279  GCA           9835 ****               0 ****  **** 
   3280  GCA           9838 ****               0 ****  **** 
   3281  GCA           9841 ****               0 ****  **** 
   3282  GCA           9844 ****               0 ****  **** 
   3283  GCA           9847 ****               0 ****  **** 
   3284  GCA           9850 ****               0 ****  **** 
   3285  GCA           9853 ****               0 ****  **** 
   3286  GCA           9856 ****               0 ****  **** 
   3287  GCA           9859 ****               0 ****  **** 
   3288  GCA           9862 ****               0 ****  **** 
   3289  GCA           9865 ****               0 ****  **** 
   3290  GCA           9868 ****               0 ****  **** 
   3291  GCA           9871 ****               0 ****  **** 
   3292  GCA           9874 ****               0 ****  **** 
   3293  GCA           9877 ****               0 ****  **** 
   3294  GCA           9880 ****               0 ****  **** 
   3295  GCA           9883 ****               0 ****  **** 
   3296  GCA           9886 ****               0 ****  **** 
   3297  GCA           9889 ****               0 ****  **** 
   3298  GCA           9892 ****               0 ****  **** 
   3299  GCA           9895 ****               0 ****  **** 
   3300  GCA           9898 ****               0 ****  **** 
   3301  GCA           9901 ****               0 ****  **** 
   3302  GCA           9904 ****               0 ****  **** 
   3303  GCA           9907 ****               0 ****  **** 
   3304  GCA           9910 ****               0 ****  **** 
   3305  GCA           9913 ****               0 ****  **** 
   3306  GCA           9916 ****               0 ****  **** 
   3307  GCA           9919 ****               0 ****  **** 
   3308  GCA           9922 ****               0 ****  **** 
   3309  GCA           9925 ****               0 ****  **** 
   3310  GCA           9928 ****               0 ****  **** 
   3311  GCA           9931 ****               0 ****  **** 
   3312  GCA           9934 ****               0 ****  **** 
   3313  GCA           9937 ****               0 ****  **** 
   3314  GCA           9940 ****               0 ****  **** 
   3315  GCA           9943 ****               0 ****  **** 
   3316  GCA           9946 ****               0 ****  **** 
   3317  GCA           9949 ****               0 ****  **** 
   3318  GCA           9952 ****               0 ****  **** 
   3319  GCA           9955 ****               0 ****  **** 
   3320  GCA           9958 ****               0 ****  **** 
   3321  GCA           9961 ****               0 ****  **** 
   3322  GCA           9964 ****               0 ****  **** 
   3323  GCA           9967 ****               0 ****  **** 
   3324  GCA           9970 ****               0 ****  **** 
   3325  GCA           9973 ****               0 ****  **** 
   3326  GCA           9976 ****               0 ****  **** 
   3327  GCA           9979 ****               0 ****  **** 
   3328  GCA           9982 ****               0 ****  **** 
   3329  GCA           9985 ****               0 ****  **** 
   3330  GCA           9988 ****               0 ****  **** 
   3331  GCA           9991 ****               0 ****  **** 
   3332  GCA           9994 ****               0 ****  **** 
   3333  GCA           9997 ****               0 ****  **** 
   3334  GCA          10000 ****               0 ****  **** 
   3335  GCA          10003 ****               0 ****  **** 
   3336  GCA          10006 ****               0 ****  **** 
   3337  GCA          10009 ****               0 ****  **** 
   3338  GCA          10012 ****               0 ****  **** 
   3339  GCA          10015 ****               0 ****  **** 
   3340  GCA          10018 ****               0 ****  **** 
   3341  GCA          10021 ****               0 ****  **** 
   3342  GCA          10024 ****               0 ****  **** 
   3343  GCA          10027 ****               0 ****  **** 
   3344  GCA          10030 ****               0 ****  **** 
   3345  GCA          10033 ****               0 ****  **** 
   3346  GCA          10036 ****               0 ****  **** 
   3347  GCA          10039 ****               0 ****  **** 
   3348  GCA          10042 ****               0 ****  **** 
   3349  GCA          10045 ****               0 ****  **** 
   3350  GCA          10048 ****               0 ****  **** 
   3351  GCA          10051 ****               0 ****  **** 
   3352  GCA          10054 ****               0 ****  **** 
   3353  GCA          10057 ****               0 ****  **** 
   3354  GCA          10060 ****               0 ****  **** 
   3355  GCA          10063 ****               0 ****  **** 
   3356  GCA          10066 ****               0 ****  **** 
   3357  GCA          10069 ****               0 ****  **** 
   3358  GCA          10072 ****               0 ****  **** 
   3359  GCA          10075 ****               0 ****  **** 
   3360  GCA          10078 ****               0 ****  **** 
   3361  GCA          10081 ****               0 ****  **** 
   3362  GCA          10084 ****               0 ****  **** 
   3363  GCA          10087 ****               0 ****  **** 
   3364  GCA          10090 ****               0 ****  **** 
   3365  GCA          10093 ****               0 ****  **** 
   3366  GCA          10096 ****               0 ****  **** 
   3367  GCA          10099 ****               0 ****  **** 
   3368  GCA          10102 ****               0 ****  **** 
   3369  GCA          10105 ****               0 ****  **** 
   3370  GCA          10108 ****               0 ****  **** 
   3371  GCA          10111 ****               0 ****  **** 
   3372  GCA          10114 ****               0 ****  **** 
   3373  GCA          10117 ****               0 ****  **** 
   3374  GCA          10120 ****               0 ****  **** 
   3375  GCA          10123 ****               0 ****  **** 
   3376  GCA          10126 ****               0 ****  **** 
   3377  GCA          10129 ****               0 ****  **** 
   3378  GCA          10132 ****               0 ****  **** 
   3379  GCA          10135 ****               0 ****  **** 
   3380  GCA          10138 ****               0 ****  **** 
   3381  GCA          10141 ****               0 ****  **** 
   3382  GCA          10144 ****               0 ****  **** 
   3383  GCA          10147 ****               0 ****  **** 
   3384  GCA          10150 ****               0 ****  **** 
   3385  GCA          10153 ****               0 ****  **** 
   3386  GCA          10156 ****               0 ****  **** 
   3387  GCA          10159 ****               0 ****  **** 
   3388  GCA          10162 ****               0 ****  **** 
   3389  GCA          10165 ****               0 ****  **** 
   3390  GCA          10168 ****               0 ****  **** 
   3391  GCA          10171 ****               0 ****  **** 
   3392  GCA          10174 ****               0 ****  **** 
   3393  GCA          10177 ****               0 ****  **** 
   3394  GCA          10180 ****               0 ****  **** 
   3395  GCA          10183 ****               0 ****  **** 
   3396  GCA          10186 ****               0 ****  **** 
   3397  GCA          10189 ****               0 ****  **** 
   3398  GCA          10192 ****               0 ****  **** 
   3399  GCA          10195 ****               0 ****  **** 
   3400  GCA          10198 ****               0 ****  **** 
   3401  GCA          10201 ****               0 ****  **** 
   3402  GCA          10204 ****               0 ****  **** 
   3403  GCA          10207 ****               0 ****  **** 
   3404  GCA          10210 ****               0 ****  **** 
   3405  GCA          10213 ****               0 ****  **** 
   3406  GCA          10216 ****               0 ****  **** 
   3407  GCA          10219 ****               0 ****  **** 
   3408  GCA          10222 ****               0 ****  **** 
   3409  GCA          10225 ****               0 ****  **** 
   3410  GCA          10228 ****               0 ****  **** 
   3411  GCA          10231 ****               0 ****  **** 
   3412  GCA          10234 ****               0 ****  **** 
   3413  GCA          10237 ****               0 ****  **** 
   3414  GCA          10240 ****               0 ****  **** 
   3415  GCA          10243 ****               0 ****  **** 
   3416  GCA          10246 ****               0 ****  **** 
   3417  GCA          10249 ****               0 ****  **** 
   3418  GCA          10252 ****               0 ****  **** 
   3419  GCA          10255 ****               0 ****  **** 
   3420  GCA          10258 ****               0 ****  **** 
   3421  GCA          10261 ****               0 ****  **** 
   3422  GCA          10264 ****               0 ****  **** 
   3423  GCA          10267 ****               0 ****  **** 
   3424  GCA          10270 ****               0 ****  **** 
   3425  GCA          10273 ****               0 ****  **** 
   3426  GCA          10276 ****               0 ****  **** 
   3427  GCA          10279 ****               0 ****  **** 
   3428  GCA          10282 ****               0 ****  **** 
   3429  GCA          10285 ****               0 ****  **** 
   3430  GCA          10288 ****               0 ****  **** 
   3431  GCA          10291 ****               0 ****  **** 
   3432  GCA          10294 ****               0 ****  **** 
   3433  GCA          10297 ****               0 ****  **** 
   3434  GCA          10300 ****               0 ****  **** 
   3435  GCA          10303 ****               0 ****  **** 
   3436  GCA          10306 ****               0 ****  **** 
   3437  GCA          10309 ****               0 ****  **** 
   3438  GCA          10312 ****               0 ****  **** 
   3439  GCA          10315 ****               0 ****  **** 
   3440  GCA          10318 ****               0 ****  **** 
   3441  GCA          10321 ****               0 ****  **** 
   3442  GCA          10324 ****               0 ****  **** 
   3443  GCA          10327 ****               0 ****  **** 
   3444  GCA          10330 ****               0 ****  **** 
   3445  GCA          10333 ****               0 ****  **** 
   3446  GCA          10336 ****               0 ****  **** 
   3447  GCA          10339 ****               0 ****  **** 
   3448  GCA          10342 ****               0 ****  **** 
   3449  GCA          10345 ****               0 ****  **** 
   3450  GCA          10348 ****               0 ****  **** 
   3451  GCA          10351 ****               0 ****  **** 
   3452  GCA          10354 ****               0 ****  **** 
   3453  GCA          10357 ****               0 ****  **** 
   3454  GCA          10360 ****               0 ****  **** 
   3455  GCA          10363 ****               0 ****  **** 
   3456  GCA          10366 ****               0 ****  **** 
   3457  GCA          10369 ****               0 ****  **** 
   3458  GCA          10372 ****               0 ****  **** 
   3459  GCA          10375 ****               0 ****  **** 
   3460  GCA          10378 ****               0 ****  **** 
   3461  GCA          10381 ****               0 ****  **** 
   3462  GCA          10384 ****               0 ****  **** 
   3463  GCA          10387 ****               0 ****  **** 
   3464  GCA          10390 ****               0 ****  **** 
   3465  GCA          10393 ****               0 ****  **** 
   3466  GCA          10396 ****               0 ****  **** 
   3467  GCA          10399 ****               0 ****  **** 
   3468  GCA          10402 ****               0 ****  **** 
   3469  GCA          10405 ****               0 ****  **** 
   3470  GCA          10408 ****               0 ****  **** 
   3471  GCA          10411 ****               0 ****  **** 
   3472  GCA          10414 ****               0 ****  **** 
   3473  GCA          10417 ****               0 ****  **** 
   3474  GCA          10420 ****               0 ****  **** 
   3475  GCA          10423 ****               0 ****  **** 
   3476  GCA          10426 ****               0 ****  **** 
   3477  GCA          10429 ****               0 ****  **** 
   3478  GCA          10432 ****               0 ****  **** 
   3479  GCA          10435 ****               0 ****  **** 
   3480  GCA          10438 ****               0 ****  **** 
   3481  GCA          10441 ****               0 ****  **** 
   3482  GCA          10444 ****               0 ****  **** 
   3483  GCA          10447 ****               0 ****  **** 
   3484  GCA          10450 ****               0 ****  **** 
   3485  GCA          10453 ****               0 ****  **** 
   3486  GCA          10456 ****               0 ****  **** 
   3487  GCA          10459 ****               0 ****  **** 
   3488  GCA          10462 ****               0 ****  **** 
   3489  GCA          10465 ****               0 ****  **** 
   3490  GCA          10468 ****               0 ****  **** 
   3491  GCA          10471 ****               0 ****  **** 
   3492  GCA          10474 ****               0 ****  **** 
   3493  GCA          10477 ****               0 ****  **** 
   3494  GCA          10480 ****               0 ****  **** 
   3495  GCA          10483 ****               0 ****  **** 
   3496  GCA          10486 ****               0 ****  **** 
   3497  GCA          10489 ****               0 ****  **** 
   3498  GCA          10492 ****               0 ****  **** 
   3499  GCA          10495 ****               0 ****  **** 
   3500  GCA          10498 ****               0 ****  **** 
   3501  GCA          10501 ****               0 ****  **** 
   3502  GCA          10504 ****               0 ****  **** 
   3503  GCA          10507 ****               0 ****  **** 
   3504  GCA          10510 ****               0 ****  **** 
   3505  GCA          10513 ****               0 ****  **** 
   3506  GCA          10516 ****               0 ****  **** 
   3507  GCA          10519 ****               0 ****  **** 
   3508  GCA          10522 ****               0 ****  **** 
   3509  GCA          10525 ****               0 ****  **** 
   3510  GCA          10528 ****               0 ****  **** 
   3511  GCA          10531 ****               0 ****  **** 
   3512  GCA          10534 ****               0 ****  **** 
   3513  GCA          10537 ****               0 ****  **** 
   3514  GCA          10540 ****               0 ****  **** 
   3515  GCA          10543 ****               0 ****  **** 
   3516  GCA          10546 ****               0 ****  **** 
   3517  GCA          10549 ****               0 ****  **** 
   3518  GCA          10552 ****               0 ****  **** 
   3519  GCA          10555 ****               0 ****  **** 
   3520  GCA          10558 ****               0 ****  **** 
   3521  GCA          10561 ****               0 ****  **** 
   3522  GCA          10564 ****               0 ****  **** 
   3523  GCA          10567 ****               0 ****  **** 
   3524  GCA          10570 ****               0 ****  **** 
   3525  GCA          10573 ****               0 ****  **** 
   3526  GCA          10576 ****               0 ****  **** 
   3527  GCA          10579 ****               0 ****  **** 
   3528  GCA          10582 ****               0 ****  **** 
   3529  GCA          10585 ****               0 ****  **** 
   3530  GCA          10588 ****               0 ****  **** 
   3531  GCA          10591 ****               0 ****  **** 
   3532  GCA          10594 ****               0 ****  **** 
   3533  GCA          10597 ****               0 ****  **** 
   3534  GCA          10600 ****               0 ****  **** 
   3535  GCA          10603 ****               0 ****  **** 
   3536  GCA          10606 ****               0 ****  **** 
   3537  GCA          10609 ****               0 ****  **** 
   3538  GCA          10612 ****               0 ****  **** 
   3539  GCA          10615 ****               0 ****  **** 
   3540  GCA          10618 ****               0 ****  **** 
   3541  GCA          10621 ****               0 ****  **** 
   3542  GCA          10624 ****               0 ****  **** 
   3543  GCA          10627 ****               0 ****  **** 
   3544  GCA          10630 ****               0 ****  **** 
   3545  GCA          10633 ****               0 ****  **** 
   3546  GCA          10636 ****               0 ****  **** 
   3547  GCA          10639 ****               0 ****  **** 
   3548  GCA          10642 ****               0 ****  **** 
   3549  GCA          10645 ****               0 ****  **** 
   3550  GCA          10648 ****               0 ****  **** 
   3551  GCA          10651 ****               0 ****  **** 
   3552  GCA          10654 ****               0 ****  **** 
   3553  GCA          10657 ****               0 ****  **** 
   3554  GCA          10660 ****               0 ****  **** 
   3555  GCA          10663 ****               0 ****  **** 
   3556  GCA          10666 ****               0 ****  **** 
   3557  GCA          10669 ****               0 ****  **** 
   3558  GCA          10672 ****               0 ****  **** 
   3559  GCA          10675 ****               0 ****  **** 
   3560  GCA          10678 ****               0 ****  **** 
   3561  GCA          10681 ****               0 ****  **** 
   3562  GCA          10684 ****               0 ****  **** 
   3563  GCA          10687 ****               0 ****  **** 
   3564  GCA          10690 ****               0 ****  **** 
   3565  GCA          10693 ****               0 ****  **** 
   3566  GCA          10696 ****               0 ****  **** 
   3567  GCA          10699 ****               0 ****  **** 
   3568  GCA          10702 ****               0 ****  **** 
   3569  GCA          10705 ****               0 ****  **** 
   3570  GCA          10708 ****               0 ****  **** 
   3571  GCA          10711 ****               0 ****  **** 
   3572  GCA          10714 ****               0 ****  **** 
   3573  GCA          10717 ****               0 ****  **** 
   3574  GCA          10720 ****               0 ****  **** 
   3575  GCA          10723 ****               0 ****  **** 
   3576  GCA          10726 ****               0 ****  **** 
   3577  GCA          10729 ****               0 ****  **** 
   3578  GCA          10732 ****               0 ****  **** 
   3579  GCA          10735 ****               0 ****  **** 
   3580  GCA          10738 ****               0 ****  **** 
   3581  GCA          10741 ****               0 ****  **** 
   3582  GCA          10744 ****               0 ****  **** 
   3583  GCA          10747 ****               0 ****  **** 
   3584  GCA          10750 ****               0 ****  **** 
   3585  GCA          10753 ****               0 ****  **** 
   3586  GCA          10756 ****               0 ****  **** 
   3587  GCA          10759 ****               0 ****  **** 
   3588  GCA          10762 ****               0 ****  **** 
   3589  GCA          10765 ****               0 ****  **** 
   3590  GCA          10768 ****               0 ****  **** 
   3591  GCA          10771 ****               0 ****  **** 
   3592  GCA          10774 ****               0 ****  **** 
   3593  GCA          10777 ****               0 ****  **** 
   3594  GCA          10780 ****               0 ****  **** 
   3595  GCA          10783 ****               0 ****  **** 
   3596  GCA          10786 ****               0 ****  **** 
   3597  GCA          10789 ****               0 ****  **** 
   3598  GCA          10792 ****               0 ****  **** 
   3599  GCA          10795 ****               0 ****  **** 
   3600  GCA          10798 ****               0 ****  **** 
   3601  GCA          10801 ****               0 ****  **** 
   3602  GCA          10804 ****               0 ****  **** 
   3603  GCA          10807 ****               0 ****  **** 
   3604  GCA          10810 ****               0 ****  **** 
   3605  GCA          10813 ****               0 ****  **** 
   3606  GCA          10816 ****               0 ****  **** 
   3607  GCA          10819 ****               0 ****  **** 
   3608  GCA          10822 ****               0 ****  **** 
   3609  GCA          10825 ****               0 ****  **** 
   3610  GCA          10828 ****               0 ****  **** 
   3611  GCA          10831 ****               0 ****  **** 
   3612  GCA          10834 ****               0 ****  **** 
   3613  GCA          10837 ****               0 ****  **** 
   3614  GCA          10840 ****               0 ****  **** 
   3615  GCA          10843 ****               0 ****  **** 
   3616  GCA          10846 ****               0 ****  **** 
   3617  GCA          10849 ****               0 ****  **** 
   3618  GCA          10852 ****               0 ****  **** 
   3619  GCA          10855 ****               0 ****  **** 
   3620  GCA          10858 ****               0 ****  **** 
   3621  GCA          10861 ****               0 ****  **** 
   3622  GCA          10864 ****               0 ****  **** 
   3623  GCA          10867 ****               0 ****  **** 
   3624  GCA          10870 ****               0 ****  **** 
   3625  GCA          10873 ****               0 ****  **** 
   3626  GCA          10876 ****               0 ****  **** 
   3627  GCA          10879 ****               0 ****  **** 
   3628  GCA          10882 ****               0 ****  **** 
   3629  GCA          10885 ****               0 ****  **** 
   3630  GCA          10888 ****               0 ****  **** 
   3631  GCA          10891 ****               0 ****  **** 
   3632  GCA          10894 ****               0 ****  **** 
   3633  GCA          10897 ****               0 ****  **** 
   3634  GCA          10900 ****               0 ****  **** 
   3635  GCA          10903 ****               0 ****  **** 
   3636  GCA          10906 ****               0 ****  **** 
   3637  GCA          10909 ****               0 ****  **** 
   3638  GCA          10912 ****               0 ****  **** 
   3639  GCA          10915 ****               0 ****  **** 
   3640  GCA          10918 ****               0 ****  **** 
   3641  GCA          10921 ****               0 ****  **** 
   3642  GCA          10924 ****               0 ****  **** 
   3643  GCA          10927 ****               0 ****  **** 
   3644  GCA          10930 ****               0 ****  **** 
   3645  GCA          10933 ****               0 ****  **** 
   3646  GCA          10936 ****               0 ****  **** 
   3647  GCA          10939 ****               0 ****  **** 
   3648  GCA          10942 ****               0 ****  **** 
   3649  GCA          10945 ****               0 ****  **** 
   3650  GCA          10948 ****               0 ****  **** 
   3651  GCA          10951 ****               0 ****  **** 
   3652  GCA          10954 ****               0 ****  **** 
   3653  GCA          10957 ****               0 ****  **** 
   3654  GCA          10960 ****               0 ****  **** 
   3655  GCA          10963 ****               0 ****  **** 
   3656  GCA          10966 ****               0 ****  **** 
   3657  GCA          10969 ****               0 ****  **** 
   3658  GCA          10972 ****               0 ****  **** 
   3659  GCA          10975 ****               0 ****  **** 
   3660  GCA          10978 ****               0 ****  **** 
   3661  GCA          10981 ****               0 ****  **** 
   3662  GCA          10984 ****               0 ****  **** 
   3663  GCA          10987 ****               0 ****  **** 
   3664  GCA          10990 ****               0 ****  **** 
   3665  GCA          10993 ****               0 ****  **** 
   3666  GCA          10996 ****               0 ****  **** 
   3667  GCA          10999 ****               0 ****  **** 
   3668  GCA          11002 ****               0 ****  **** 
   3669  GCA          11005 ****               0 ****  **** 
   3670  GCA          11008 ****               0 ****  **** 
   3671  GCA          11011 ****               0 ****  **** 
   3672  GCA          11014 ****               0 ****  **** 
   3673  GCA          11017 ****               0 ****  **** 
   3674  GCA          11020 ****               0 ****  **** 
   3675  GCA          11023 ****               0 ****  **** 
   3676  GCA          11026 ****               0 ****  **** 
   3677  GCA          11029 ****               0 ****  **** 
   3678  GCA          11032 ****               0 ****  **** 
   3679  GCA          11035 ****               0 ****  **** 
   3680  GCA          11038 ****               0 ****  **** 
   3681  GCA          11041 ****               0 ****  **** 
   3682  GCA          11044 ****               0 ****  **** 
   3683  GCA          11047 ****               0 ****  **** 
   3684  GCA          11050 ****               0 ****  **** 
   3685  GCA          11053 ****               0 ****  **** 
   3686  GCA          11056 ****               0 ****  **** 
   3687  GCA          11059 ****               0 ****  **** 
   3688  GCA          11062 ****               0 ****  **** 
   3689  GCA          11065 ****               0 ****  **** 
   3690  GCA          11068 ****               0 ****  **** 
   3691  GCA          11071 ****               0 ****  **** 
   3692  GCA          11074 ****               0 ****  **** 
   3693  GCA          11077 ****               0 ****  **** 
   3694  GCA          11080 ****               0 ****  **** 
   3695  GCA          11083 ****               0 ****  **** 
   3696  GCA          11086 ****               0 ****  **** 
   3697  GCA          11089 ****               0 ****  **** 
   3698  GCA          11092 ****               0 ****  **** 
   3699  GCA          11095 ****               0 ****  **** 
   3700  GCA          11098 ****               0 ****  **** 
   3701  GCA          11101 ****               0 ****  **** 
   3702  GCA          11104 ****               0 ****  **** 
   3703  GCA          11107 ****               0 ****  **** 
   3704  GCA          11110 ****               0 ****  **** 
   3705  GCA          11113 ****               0 ****  **** 
   3706  GCA          11116 ****               0 ****  **** 
   3707  GCA          11119 ****               0 ****  **** 
   3708  GCA          11122 ****               0 ****  **** 
   3709  GCA          11125 ****               0 ****  **** 
   3710  GCA          11128 ****               0 ****  **** 
   3711  GCA          11131 ****               0 ****  **** 
   3712  GCA          11134 ****               0 ****  **** 
   3713  GCA          11137 ****               0 ****  **** 
   3714  GCA          11140 ****               0 ****  **** 
   3715  GCA          11143 ****               0 ****  **** 
   3716  GCA          11146 ****               0 ****  **** 
   3717  GCA          11149 ****               0 ****  **** 
   3718  GCA          11152 ****               0 ****  **** 
   3719  GCA          11155 ****               0 ****  **** 
   3720  GCA          11158 ****               0 ****  **** 
   3721  GCA          11161 ****               0 ****  **** 
   3722  GCA          11164 ****               0 ****  **** 
   3723  GCA          11167 ****               0 ****  **** 
   3724  GCA          11170 ****               0 ****  **** 
   3725  GCA          11173 ****               0 ****  **** 
   3726  GCA          11176 ****               0 ****  **** 
   3727  GCA          11179 ****               0 ****  **** 
   3728  GCA          11182 ****               0 ****  **** 
   3729  GCA          11185 ****               0 ****  **** 
   3730  GCA          11188 ****               0 ****  **** 
   3731  GCA          11191 ****               0 ****  **** 
   3732  GCA          11194 ****               0 ****  **** 
   3733  GCA          11197 ****               0 ****  **** 
   3734  GCA          11200 ****               0 ****  **** 
   3735  GCA          11203 ****               0 ****  **** 
   3736  GCA          11206 ****               0 ****  **** 
   3737  GCA          11209 ****               0 ****  **** 
   3738  GCA          11212 ****               0 ****  **** 
   3739  GCA          11215 ****               0 ****  **** 
   3740  GCA          11218 ****               0 ****  **** 
   3741  GCA          11221 ****               0 ****  **** 
   3742  GCA          11224 ****               0 ****  **** 
   3743  GCA          11227 ****               0 ****  **** 
   3744  GCA          11230 ****               0 ****  **** 
   3745  GCA          11233 ****               0 ****  **** 
   3746  GCA          11236 ****               0 ****  **** 
   3747  GCA          11239 ****               0 ****  **** 
   3748  GCA          11242 ****               0 ****  **** 
   3749  GCA          11245 ****               0 ****  **** 
   3750  GCA          11248 ****               0 ****  **** 
   3751  GCA          11251 ****               0 ****  **** 
   3752  GCA          11254 ****               0 ****  **** 
   3753  GCA          11257 ****               0 ****  **** 
   3754  GCA          11260 ****               0 ****  **** 
   3755  GCA          11263 ****               0 ****  **** 
   3756  GCA          11266 ****               0 ****  **** 
   3757  GCA          11269 ****               0 ****  **** 
   3758  GCA          11272 ****               0 ****  **** 
   3759  GCA          11275 ****               0 ****  **** 
   3760  GCA          11278 ****               0 ****  **** 
   3761  GCA          11281 ****               0 ****  **** 
   3762  GCA          11284 ****               0 ****  **** 
   3763  GCA          11287 ****               0 ****  **** 
   3764  GCA          11290 ****               0 ****  **** 
   3765  GCA          11293 ****               0 ****  **** 
   3766  GCA          11296 ****               0 ****  **** 
   3767  GCA          11299 ****               0 ****  **** 
   3768  GCA          11302 ****               0 ****  **** 
   3769  GCA          11305 ****               0 ****  **** 
   3770  GCA          11308 ****               0 ****  **** 
   3771  GCA          11311 ****               0 ****  **** 
   3772  GCA          11314 ****               0 ****  **** 
   3773  GCA          11317 ****               0 ****  **** 
   3774  GCA          11320 ****               0 ****  **** 
   3775  GCA          11323 ****               0 ****  **** 
   3776  GCA          11326 ****               0 ****  **** 
   3777  GCA          11329 ****               0 ****  **** 
   3778  GCA          11332 ****               0 ****  **** 
   3779  GCA          11335 ****               0 ****  **** 
   3780  GCA          11338 ****               0 ****  **** 
   3781  GCA          11341 ****               0 ****  **** 
   3782  GCA          11344 ****               0 ****  **** 
   3783  GCA          11347 ****               0 ****  **** 
   3784  GCA          11350 ****               0 ****  **** 
   3785  GCA          11353 ****               0 ****  **** 
   3786  GCA          11356 ****               0 ****  **** 
   3787  GCA          11359 ****               0 ****  **** 
   3788  GCA          11362 ****               0 ****  **** 
   3789  GCA          11365 ****               0 ****  **** 
   3790  GCA          11368 ****               0 ****  **** 
   3791  GCA          11371 ****               0 ****  **** 
   3792  GCA          11374 ****               0 ****  **** 
   3793  GCA          11377 ****               0 ****  **** 
   3794  GCA          11380 ****               0 ****  **** 
   3795  GCA          11383 ****               0 ****  **** 
   3796  GCA          11386 ****               0 ****  **** 
   3797  GCA          11389 ****               0 ****  **** 
   3798  GCA          11392 ****               0 ****  **** 
   3799  GCA          11395 ****               0 ****  **** 
   3800  GCA          11398 ****               0 ****  **** 
   3801  GCA          11401 ****               0 ****  **** 
   3802  GCA          11404 ****               0 ****  **** 
   3803  GCA          11407 ****               0 ****  **** 
   3804  GCA          11410 ****               0 ****  **** 
   3805  GCA          11413 ****               0 ****  **** 
   3806  GCA          11416 ****               0 ****  **** 
   3807  GCA          11419 ****               0 ****  **** 
   3808  GCA          11422 ****               0 ****  **** 
   3809  GCA          11425 ****               0 ****  **** 
   3810  GCA          11428 ****               0 ****  **** 
   3811  GCA          11431 ****               0 ****  **** 
   3812  GCA          11434 ****               0 ****  **** 
   3813  GCA          11437 ****               0 ****  **** 
   3814  GCA          11440 ****               0 ****  **** 
   3815  GCA          11443 ****               0 ****  **** 
   3816  GCA          11446 ****               0 ****  **** 
   3817  GCA          11449 ****               0 ****  **** 
   3818  GCA          11452 ****               0 ****  **** 
   3819  GCA          11455 ****               0 ****  **** 
   3820  GCA          11458 ****               0 ****  **** 
   3821  GCA          11461 ****               0 ****  **** 
   3822  GCA          11464 ****               0 ****  **** 
   3823  GCA          11467 ****               0 ****  **** 
   3824  GCA          11470 ****               0 ****  **** 
   3825  GCA          11473 ****               0 ****  **** 
   3826  GCA          11476 ****               0 ****  **** 
   3827  GCA          11479 ****               0 ****  **** 
   3828  GCA          11482 ****               0 ****  **** 
   3829  GCA          11485 ****               0 ****  **** 
   3830  GCA          11488 ****               0 ****  **** 
   3831  GCA          11491 ****               0 ****  **** 
   3832  GCA          11494 ****               0 ****  **** 
   3833  GCA          11497 ****               0 ****  **** 
   3834  GCA          11500 ****               0 ****  **** 
   3835  GCA          11503 ****               0 ****  **** 
   3836  GCA          11506 ****               0 ****  **** 
   3837  GOL          11509 ****               0 ****  **** 
   3838  GOL          11510 ****               0 ****  **** 
   3839  GOL          11511 ****               0 ****  **** 
   3840  GOL          11512 ****               0 ****  **** 
   3841  GOL          11513 ****               0 ****  **** 
   3842  GOL          11514 ****               0 ****  **** 
   3843  GOL          11515 ****               0 ****  **** 
   3844  GOL          11516 ****               0 ****  **** 
   3845  GOL          11517 ****               0 ****  **** 
   3846  GOL          11518 ****               0 ****  **** 
   3847  GOL          11519 ****               0 ****  **** 
   3848  GOL          11520 ****               0 ****  **** 
   3849  GOL          11521 ****               0 ****  **** 
   3850  GOL          11522 ****               0 ****  **** 
   3851  GOL          11523 ****               0 ****  **** 
   3852  GOL          11524 ****               0 ****  **** 
   3853  GOL          11525 ****               0 ****  **** 
   3854  GOL          11526 ****               0 ****  **** 
   3855  GOL          11527 ****               0 ****  **** 
   3856  GOL          11528 ****               0 ****  **** 
   3857  GOL          11529 ****               0 ****  **** 
   3858  GOL          11530 ****               0 ****  **** 
   3859  GOL          11531 ****               0 ****  **** 
   3860  GOL          11532 ****               0 ****  **** 
   3861  GOL          11533 ****               0 ****  **** 
   3862  GOL          11534 ****               0 ****  **** 
   3863  GOL          11535 ****               0 ****  **** 
   3864  GOL          11536 ****               0 ****  **** 
   3865  GOL          11537 ****               0 ****  **** 
   3866  GOL          11538 ****               0 ****  **** 
   3867  GOL          11539 ****               0 ****  **** 
   3868  GOL          11540 ****               0 ****  **** 
   3869  GOL          11541 ****               0 ****  **** 
   3870  GOL          11542 ****               0 ****  **** 
   3871  GOL          11543 ****               0 ****  **** 
   3872  GOL          11544 ****               0 ****  **** 
   3873  GOL          11545 ****               0 ****  **** 
   3874  GOL          11546 ****               0 ****  **** 
   3875  GOL          11547 ****               0 ****  **** 
   3876  GOL          11548 ****               0 ****  **** 
   3877  GOL          11549 ****               0 ****  **** 
   3878  GOL          11550 ****               0 ****  **** 
   3879  GOL          11551 ****               0 ****  **** 
   3880  GOL          11552 ****               0 ****  **** 
   3881  GOL          11553 ****               0 ****  **** 
   3882  GOL          11554 ****               0 ****  **** 
   3883  GOL          11555 ****               0 ****  **** 
   3884  GOL          11556 ****               0 ****  **** 
   3885  GOL          11557 ****               0 ****  **** 
   3886  GOL          11558 ****               0 ****  **** 
   3887  GOL          11559 ****               0 ****  **** 
   3888  GOL          11560 ****               0 ****  **** 
   3889  GOL          11561 ****               0 ****  **** 
   3890  GOL          11562 ****               0 ****  **** 
   3891  GOL          11563 ****               0 ****  **** 
   3892  GOL          11564 ****               0 ****  **** 
   3893  GOL          11565 ****               0 ****  **** 
   3894  GOL          11566 ****               0 ****  **** 
   3895  GOL          11567 ****               0 ****  **** 
   3896  GOL          11568 ****               0 ****  **** 
   3897  GOL          11569 ****               0 ****  **** 
   3898  GOL          11570 ****               0 ****  **** 
   3899  GOL          11571 ****               0 ****  **** 
   3900  GOL          11572 ****               0 ****  **** 
   3901  GOL          11573 ****               0 ****  **** 
   3902  GOL          11574 ****               0 ****  **** 
   3903  GOL          11575 ****               0 ****  **** 
   3904  GOL          11576 ****               0 ****  **** 
   3905  GOL          11577 ****               0 ****  **** 
   3906  GOL          11578 ****               0 ****  **** 
   3907  GOL          11579 ****               0 ****  **** 
   3908  GOL          11580 ****               0 ****  **** 
   3909  GOL          11581 ****               0 ****  **** 
   3910  GOL          11582 ****               0 ****  **** 
   3911  GOL          11583 ****               0 ****  **** 
   3912  GOL          11584 ****               0 ****  **** 
   3913  GOL          11585 ****               0 ****  **** 
   3914  GOL          11586 ****               0 ****  **** 
   3915  GOL          11587 ****               0 ****  **** 
   3916  GOL          11588 ****               0 ****  **** 
   3917  GOL          11589 ****               0 ****  **** 
   3918  GOL          11590 ****               0 ****  **** 
   3919  GOL          11591 ****               0 ****  **** 
   3920  GOL          11592 ****               0 ****  **** 
   3921  GOL          11593 ****               0 ****  **** 
   3922  GOL          11594 ****               0 ****  **** 
   3923  GOL          11595 ****               0 ****  **** 
   3924  GOL          11596 ****               0 ****  **** 
   3925  GOL          11597 ****               0 ****  **** 
   3926  GOL          11598 ****               0 ****  **** 
   3927  GOL          11599 ****               0 ****  **** 
   3928  GOL          11600 ****               0 ****  **** 
   3929  GOL          11601 ****               0 ****  **** 
   3930  GOL          11602 ****               0 ****  **** 
   3931  GOL          11603 ****               0 ****  **** 
   3932  GOL          11604 ****               0 ****  **** 
   3933  GOL          11605 ****               0 ****  **** 
   3934  GOL          11606 ****               0 ****  **** 
   3935  GOL          11607 ****               0 ****  **** 
   3936  GOL          11608 ****               0 ****  **** 
   3937  GOL          11609 ****               0 ****  **** 
   3938  GOL          11610 ****               0 ****  **** 
   3939  GOL          11611 ****               0 ****  **** 
   3940  GOL          11612 ****               0 ****  **** 
   3941  GOL          11613 ****               0 ****  **** 
   3942  GOL          11614 ****               0 ****  **** 
   3943  GOL          11615 ****               0 ****  **** 
   3944  GOL          11616 ****               0 ****  **** 
   3945  GOL          11617 ****               0 ****  **** 
   3946  GOL          11618 ****               0 ****  **** 
   3947  GOL          11619 ****               0 ****  **** 
   3948  GOL          11620 ****               0 ****  **** 
   3949  GOL          11621 ****               0 ****  **** 
   3950  GOL          11622 ****               0 ****  **** 
   3951  GOL          11623 ****               0 ****  **** 
   3952  GOL          11624 ****               0 ****  **** 
   3953  GOL          11625 ****               0 ****  **** 
   3954  GOL          11626 ****               0 ****  **** 
   3955  GOL          11627 ****               0 ****  **** 
   3956  GOL          11628 ****               0 ****  **** 
   3957  GOL          11629 ****               0 ****  **** 
   3958  GOL          11630 ****               0 ****  **** 
   3959  GOL          11631 ****               0 ****  **** 
   3960  GOL          11632 ****               0 ****  **** 
   3961  GOL          11633 ****               0 ****  **** 
   3962  GOL          11634 ****               0 ****  **** 
   3963  GOL          11635 ****               0 ****  **** 
   3964  GOL          11636 ****               0 ****  **** 
   3965  GOL          11637 ****               0 ****  **** 
   3966  GOL          11638 ****               0 ****  **** 
   3967  GOL          11639 ****               0 ****  **** 
   3968  GOL          11640 ****               0 ****  **** 
   3969  GOL          11641 ****               0 ****  **** 
   3970  GOL          11642 ****               0 ****  **** 
   3971  GOL          11643 ****               0 ****  **** 
   3972  GOL          11644 ****               0 ****  **** 
   3973  GOL          11645 ****               0 ****  **** 
   3974  GOL          11646 ****               0 ****  **** 
   3975  GOL          11647 ****               0 ****  **** 
   3976  GOL          11648 ****               0 ****  **** 
   3977  GOL          11649 ****               0 ****  **** 
   3978  GOL          11650 ****               0 ****  **** 
   3979  GOL          11651 ****               0 ****  **** 
   3980  GOL          11652 ****               0 ****  **** 
   3981  GOL          11653 ****               0 ****  **** 
   3982  GOL          11654 ****               0 ****  **** 
   3983  GOL          11655 ****               0 ****  **** 
   3984  GOL          11656 ****               0 ****  **** 
   3985  GOL          11657 ****               0 ****  **** 
   3986  GOL          11658 ****               0 ****  **** 
   3987  GOL          11659 ****               0 ****  **** 
   3988  GOL          11660 ****               0 ****  **** 
   3989  GOL          11661 ****               0 ****  **** 
   3990  GOL          11662 ****               0 ****  **** 
   3991  GOL          11663 ****               0 ****  **** 
   3992  GOL          11664 ****               0 ****  **** 
   3993  GOL          11665 ****               0 ****  **** 
   3994  GOL          11666 ****               0 ****  **** 
   3995  GOL          11667 ****               0 ****  **** 
   3996  GOL          11668 ****               0 ****  **** 
   3997  GOL          11669 ****               0 ****  **** 
   3998  GOL          11670 ****               0 ****  **** 
   3999  GOL          11671 ****               0 ****  **** 
   4000  GOL          11672 ****               0 ****  **** 
   4001  GOL          11673 ****               0 ****  **** 
   4002  GOL          11674 ****               0 ****  **** 
   4003  GOL          11675 ****               0 ****  **** 
   4004  GOL          11676 ****               0 ****  **** 
   4005  GOL          11677 ****               0 ****  **** 
   4006  GOL          11678 ****               0 ****  **** 
   4007  GOL          11679 ****               0 ****  **** 
   4008  GOL          11680 ****               0 ****  **** 
   4009  GOL          11681 ****               0 ****  **** 
   4010  GOL          11682 ****               0 ****  **** 
   4011  GOL          11683 ****               0 ****  **** 
   4012  GOL          11684 ****               0 ****  **** 
   4013  GOL          11685 ****               0 ****  **** 
   4014  GOL          11686 ****               0 ****  **** 
   4015  GOL          11687 ****               0 ****  **** 
   4016  GOL          11688 ****               0 ****  **** 
   4017  GOL          11689 ****               0 ****  **** 
   4018  GOL          11690 ****               0 ****  **** 
   4019  GOL          11691 ****               0 ****  **** 
   4020  GOL          11692 ****               0 ****  **** 
   4021  GOL          11693 ****               0 ****  **** 
   4022  GOL          11694 ****               0 ****  **** 
   4023  GOL          11695 ****               0 ****  **** 
   4024  GOL          11696 ****               0 ****  **** 
   4025  GOL          11697 ****               0 ****  **** 
   4026  GOL          11698 ****               0 ****  **** 
   4027  GOL          11699 ****               0 ****  **** 
   4028  GOL          11700 ****               0 ****  **** 
   4029  GOL          11701 ****               0 ****  **** 
   4030  GOL          11702 ****               0 ****  **** 
   4031  GOL          11703 ****               0 ****  **** 
   4032  GOL          11704 ****               0 ****  **** 
   4033  GOL          11705 ****               0 ****  **** 
   4034  GOL          11706 ****               0 ****  **** 
   4035  GOL          11707 ****               0 ****  **** 
   4036  GOL          11708 ****               0 ****  **** 
   4037  GOL          11709 ****               0 ****  **** 
   4038  GOL          11710 ****               0 ****  **** 
   4039  GOL          11711 ****               0 ****  **** 
   4040  GOL          11712 ****               0 ****  **** 
   4041  GOL          11713 ****               0 ****  **** 
   4042  GOL          11714 ****               0 ****  **** 
   4043  GOL          11715 ****               0 ****  **** 
   4044  GOL          11716 ****               0 ****  **** 
   4045  GOL          11717 ****               0 ****  **** 
   4046  GOL          11718 ****               0 ****  **** 
   4047  GOL          11719 ****               0 ****  **** 
   4048  GOL          11720 ****               0 ****  **** 
   4049  GOL          11721 ****               0 ****  **** 
   4050  GOL          11722 ****               0 ****  **** 
   4051  GOL          11723 ****               0 ****  **** 
   4052  GOL          11724 ****               0 ****  **** 
   4053  GOL          11725 ****               0 ****  **** 
   4054  GOL          11726 ****               0 ****  **** 
   4055  GOL          11727 ****               0 ****  **** 
   4056  GOL          11728 ****               0 ****  **** 
   4057  GOL          11729 ****               0 ****  **** 
   4058  GOL          11730 ****               0 ****  **** 
   4059  GOL          11731 ****               0 ****  **** 
   4060  GOL          11732 ****               0 ****  **** 
   4061  GOL          11733 ****               0 ****  **** 
   4062  GOL          11734 ****               0 ****  **** 
   4063  GOL          11735 ****               0 ****  **** 
   4064  GOL          11736 ****               0 ****  **** 
   4065  GOL          11737 ****               0 ****  **** 
   4066  GOL          11738 ****               0 ****  **** 
   4067  GOL          11739 ****               0 ****  **** 
   4068  GOL          11740 ****               0 ****  **** 
   4069  GOL          11741 ****               0 ****  **** 
   4070  GOL          11742 ****               0 ****  **** 
   4071  GOL          11743 ****               0 ****  **** 
   4072  GOL          11744 ****               0 ****  **** 
   4073  GOL          11745 ****               0 ****  **** 
   4074  GOL          11746 ****               0 ****  **** 
   4075  GOL          11747 ****               0 ****  **** 
   4076  GOL          11748 ****               0 ****  **** 
   4077  GOL          11749 ****               0 ****  **** 
   4078  GOL          11750 ****               0 ****  **** 
   4079  GOL          11751 ****               0 ****  **** 
   4080  GOL          11752 ****               0 ****  **** 
   4081  GOL          11753 ****               0 ****  **** 
   4082  GOL          11754 ****               0 ****  **** 
   4083  GOL          11755 ****               0 ****  **** 
   4084  GOL          11756 ****               0 ****  **** 
   4085  GOL          11757 ****               0 ****  **** 
   4086  GOL          11758 ****               0 ****  **** 
   4087  GOL          11759 ****               0 ****  **** 
   4088  GOL          11760 ****               0 ****  **** 
   4089  GOL          11761 ****               0 ****  **** 
   4090  GOL          11762 ****               0 ****  **** 
   4091  GOL          11763 ****               0 ****  **** 
   4092  GOL          11764 ****               0 ****  **** 
   4093  GOL          11765 ****               0 ****  **** 
   4094  GOL          11766 ****               0 ****  **** 
   4095  GOL          11767 ****               0 ****  **** 
   4096  GOL          11768 ****               0 ****  **** 
   4097  GOL          11769 ****               0 ****  **** 
   4098  GOL          11770 ****               0 ****  **** 
   4099  GOL          11771 ****               0 ****  **** 
   4100  GOL          11772 ****               0 ****  **** 
   4101  GOL          11773 ****               0 ****  **** 
   4102  GOL          11774 ****               0 ****  **** 
   4103  GOL          11775 ****               0 ****  **** 
   4104  GOL          11776 ****               0 ****  **** 
   4105  GOL          11777 ****               0 ****  **** 
   4106  GOL          11778 ****               0 ****  **** 
   4107  GOL          11779 ****               0 ****  **** 
   4108  GOL          11780 ****               0 ****  **** 
   4109  GOL          11781 ****               0 ****  **** 
   4110  GOL          11782 ****               0 ****  **** 
   4111  GOL          11783 ****               0 ****  **** 
   4112  GOL          11784 ****               0 ****  **** 
   4113  GOL          11785 ****               0 ****  **** 
   4114  GOL          11786 ****               0 ****  **** 
   4115  GOL          11787 ****               0 ****  **** 
   4116  GOL          11788 ****               0 ****  **** 
   4117  GOL          11789 ****               0 ****  **** 
   4118  GOL          11790 ****               0 ****  **** 
   4119  GOL          11791 ****               0 ****  **** 
   4120  GOL          11792 ****               0 ****  **** 
   4121  GOL          11793 ****               0 ****  **** 
   4122  GOL          11794 ****               0 ****  **** 
   4123  GOL          11795 ****               0 ****  **** 
   4124  GOL          11796 ****               0 ****  **** 
   4125  GOL          11797 ****               0 ****  **** 
   4126  GOL          11798 ****               0 ****  **** 
   4127  GOL          11799 ****               0 ****  **** 
   4128  GOL          11800 ****               0 ****  **** 
   4129  GOL          11801 ****               0 ****  **** 
   4130  GOL          11802 ****               0 ****  **** 
   4131  GOL          11803 ****               0 ****  **** 
   4132  GOL          11804 ****               0 ****  **** 
   4133  GOL          11805 ****               0 ****  **** 
   4134  GOL          11806 ****               0 ****  **** 
   4135  GOL          11807 ****               0 ****  **** 
   4136  GOL          11808 ****               0 ****  **** 
   4137  GOL          11809 ****               0 ****  **** 
   4138  GOL          11810 ****               0 ****  **** 
   4139  GOL          11811 ****               0 ****  **** 
   4140  GOL          11812 ****               0 ****  **** 
   4141  GOL          11813 ****               0 ****  **** 
   4142  GOL          11814 ****               0 ****  **** 
   4143  GOL          11815 ****               0 ****  **** 
   4144  GOL          11816 ****               0 ****  **** 
   4145  GOL          11817 ****               0 ****  **** 
   4146  GOL          11818 ****               0 ****  **** 
   4147  GOL          11819 ****               0 ****  **** 
   4148  GOL          11820 ****               0 ****  **** 
   4149  GOL          11821 ****               0 ****  **** 
   4150  GOL          11822 ****               0 ****  **** 
   4151  GOL          11823 ****               0 ****  **** 
   4152  GOL          11824 ****               0 ****  **** 
   4153  GOL          11825 ****               0 ****  **** 
   4154  GOL          11826 ****               0 ****  **** 
   4155  GOL          11827 ****               0 ****  **** 
   4156  GOL          11828 ****               0 ****  **** 
   4157  GOL          11829 ****               0 ****  **** 
   4158  GOL          11830 ****               0 ****  **** 
   4159  GOL          11831 ****               0 ****  **** 
   4160  GOL          11832 ****               0 ****  **** 
   4161  GOL          11833 ****               0 ****  **** 
   4162  GOL          11834 ****               0 ****  **** 
   4163  GOL          11835 ****               0 ****  **** 
   4164  GOL          11836 ****               0 ****  **** 
   4165  GOL          11837 ****               0 ****  **** 
   4166  GOL          11838 ****               0 ****  **** 
   4167  GOL          11839 ****               0 ****  **** 
   4168  GOL          11840 ****               0 ****  **** 
   4169  GOL          11841 ****               0 ****  **** 
   4170  GOL          11842 ****               0 ****  **** 
   4171  GOL          11843 ****               0 ****  **** 
   4172  GOL          11844 ****               0 ****  **** 
   4173  GOL          11845 ****               0 ****  **** 
   4174  GOL          11846 ****               0 ****  **** 
   4175  GOL          11847 ****               0 ****  **** 
   4176  GOL          11848 ****               0 ****  **** 
   4177  GOL          11849 ****               0 ****  **** 
   4178  GOL          11850 ****               0 ****  **** 
   4179  GOL          11851 ****               0 ****  **** 
   4180  GOL          11852 ****               0 ****  **** 
   4181  GOL          11853 ****               0 ****  **** 
   4182  GOL          11854 ****               0 ****  **** 
   4183  GOL          11855 ****               0 ****  **** 
   4184  GOL          11856 ****               0 ****  **** 
   4185  GOL          11857 ****               0 ****  **** 
   4186  GOL          11858 ****               0 ****  **** 
   4187  GOL          11859 ****               0 ****  **** 
   4188  GOL          11860 ****               0 ****  **** 
   4189  GOL          11861 ****               0 ****  **** 
   4190  GOL          11862 ****               0 ****  **** 
   4191  GOL          11863 ****               0 ****  **** 
   4192  GOL          11864 ****               0 ****  **** 
   4193  GOL          11865 ****               0 ****  **** 
   4194  GOL          11866 ****               0 ****  **** 
   4195  GOL          11867 ****               0 ****  **** 
   4196  GOL          11868 ****               0 ****  **** 
   4197  GOL          11869 ****               0 ****  **** 
   4198  GOL          11870 ****               0 ****  **** 
   4199  GOL          11871 ****               0 ****  **** 
   4200  GOL          11872 ****               0 ****  **** 
   4201  GOL          11873 ****               0 ****  **** 
   4202  GOL          11874 ****               0 ****  **** 
   4203  GOL          11875 ****               0 ****  **** 
   4204  GOL          11876 ****               0 ****  **** 
   4205  GOL          11877 ****               0 ****  **** 
   4206  GOL          11878 ****               0 ****  **** 
   4207  GOL          11879 ****               0 ****  **** 
   4208  GOL          11880 ****               0 ****  **** 
   4209  GOL          11881 ****               0 ****  **** 
   4210  GOL          11882 ****               0 ****  **** 
   4211  GOL          11883 ****               0 ****  **** 
   4212  GOL          11884 ****               0 ****  **** 
   4213  GOL          11885 ****               0 ****  **** 
   4214  GOL          11886 ****               0 ****  **** 
   4215  GOL          11887 ****               0 ****  **** 
   4216  GOL          11888 ****               0 ****  **** 
   4217  GOL          11889 ****               0 ****  **** 
   4218  GOL          11890 ****               0 ****  **** 
   4219  GOL          11891 ****               0 ****  **** 
   4220  GOL          11892 ****               0 ****  **** 
   4221  GOL          11893 ****               0 ****  **** 
   4222  GOL          11894 ****               0 ****  **** 
   4223  GOL          11895 ****               0 ****  **** 
   4224  GOL          11896 ****               0 ****  **** 
   4225  GOL          11897 ****               0 ****  **** 
   4226  GOL          11898 ****               0 ****  **** 
   4227  GOL          11899 ****               0 ****  **** 
   4228  GOL          11900 ****               0 ****  **** 
   4229  GOL          11901 ****               0 ****  **** 
   4230  GOL          11902 ****               0 ****  **** 
   4231  GOL          11903 ****               0 ****  **** 
   4232  GOL          11904 ****               0 ****  **** 
   4233  GOL          11905 ****               0 ****  **** 
   4234  GOL          11906 ****               0 ****  **** 
   4235  GOL          11907 ****               0 ****  **** 
   4236  GOL          11908 ****               0 ****  **** 
   4237  GOL          11909 ****               0 ****  **** 
   4238  GOL          11910 ****               0 ****  **** 
   4239  GOL          11911 ****               0 ****  **** 
   4240  GOL          11912 ****               0 ****  **** 
   4241  GOL          11913 ****               0 ****  **** 
   4242  GOL          11914 ****               0 ****  **** 
   4243  GOL          11915 ****               0 ****  **** 
   4244  GOL          11916 ****               0 ****  **** 
   4245  GOL          11917 ****               0 ****  **** 
   4246  GOL          11918 ****               0 ****  **** 
   4247  GOL          11919 ****               0 ****  **** 
   4248  GOL          11920 ****               0 ****  **** 
   4249  GOL          11921 ****               0 ****  **** 
   4250  GOL          11922 ****               0 ****  **** 
   4251  GOL          11923 ****               0 ****  **** 
   4252  GOL          11924 ****               0 ****  **** 
   4253  GOL          11925 ****               0 ****  **** 
   4254  GOL          11926 ****               0 ****  **** 
   4255  GOL          11927 ****               0 ****  **** 
   4256  GOL          11928 ****               0 ****  **** 
   4257  GOL          11929 ****               0 ****  **** 
   4258  GOL          11930 ****               0 ****  **** 
   4259  GOL          11931 ****               0 ****  **** 
   4260  GOL          11932 ****               0 ****  **** 
   4261  GOL          11933 ****               0 ****  **** 
   4262  GOL          11934 ****               0 ****  **** 
   4263  GOL          11935 ****               0 ****  **** 
   4264  GOL          11936 ****               0 ****  **** 
   4265  GOL          11937 ****               0 ****  **** 
   4266  GOL          11938 ****               0 ****  **** 
   4267  GOL          11939 ****               0 ****  **** 
   4268  GOL          11940 ****               0 ****  **** 
   4269  GOL          11941 ****               0 ****  **** 
   4270  GOL          11942 ****               0 ****  **** 
   4271  GOL          11943 ****               0 ****  **** 
   4272  GOL          11944 ****               0 ****  **** 
   4273  GOL          11945 ****               0 ****  **** 
   4274  GOL          11946 ****               0 ****  **** 
   4275  GOL          11947 ****               0 ****  **** 
   4276  GOL          11948 ****               0 ****  **** 
   4277  GOL          11949 ****               0 ****  **** 
   4278  GOL          11950 ****               0 ****  **** 
   4279  GOL          11951 ****               0 ****  **** 
   4280  GOL          11952 ****               0 ****  **** 
   4281  GOL          11953 ****               0 ****  **** 
   4282  GOL          11954 ****               0 ****  **** 
   4283  GOL          11955 ****               0 ****  **** 
   4284  GOL          11956 ****               0 ****  **** 
   4285  GOL          11957 ****               0 ****  **** 
   4286  GOL          11958 ****               0 ****  **** 
   4287  GOL          11959 ****               0 ****  **** 
   4288  GOL          11960 ****               0 ****  **** 
   4289  GOL          11961 ****               0 ****  **** 
   4290  GOL          11962 ****               0 ****  **** 
   4291  GOL          11963 ****               0 ****  **** 
   4292  GOL          11964 ****               0 ****  **** 
   4293  GOL          11965 ****               0 ****  **** 
   4294  GOL          11966 ****               0 ****  **** 
   4295  GOL          11967 ****               0 ****  **** 
   4296  GOL          11968 ****               0 ****  **** 
   4297  GOL          11969 ****               0 ****  **** 
   4298  GOL          11970 ****               0 ****  **** 
   4299  GOL          11971 ****               0 ****  **** 
   4300  GOL          11972 ****               0 ****  **** 
   4301  GOL          11973 ****               0 ****  **** 
   4302  GOL          11974 ****               0 ****  **** 
   4303  GOL          11975 ****               0 ****  **** 
   4304  GOL          11976 ****               0 ****  **** 
   4305  GOL          11977 ****               0 ****  **** 
   4306  GOL          11978 ****               0 ****  **** 
   4307  GOL          11979 ****               0 ****  **** 
   4308  GOL          11980 ****               0 ****  **** 
   4309  GOL          11981 ****               0 ****  **** 
   4310  GOL          11982 ****               0 ****  **** 
   4311  GOL          11983 ****               0 ****  **** 
   4312  GOL          11984 ****               0 ****  **** 
   4313  GOL          11985 ****               0 ****  **** 
   4314  GOL          11986 ****               0 ****  **** 
   4315  GOL          11987 ****               0 ****  **** 
   4316  GOL          11988 ****               0 ****  **** 
   4317  GOL          11989 ****               0 ****  **** 
   4318  GOL          11990 ****               0 ****  **** 
   4319  GOL          11991 ****               0 ****  **** 
   4320  GOL          11992 ****               0 ****  **** 
   4321  GOL          11993 ****               0 ****  **** 
   4322  GOL          11994 ****               0 ****  **** 
   4323  GOL          11995 ****               0 ****  **** 
   4324  GOL          11996 ****               0 ****  **** 
   4325  GOL          11997 ****               0 ****  **** 
   4326  GOL          11998 ****               0 ****  **** 
   4327  GOL          11999 ****               0 ****  **** 
   4328  GOL          12000 ****               0 ****  **** 
   4329  GOL          12001 ****               0 ****  **** 
   4330  GOL          12002 ****               0 ****  **** 
   4331  GOL          12003 ****               0 ****  **** 
   4332  GOL          12004 ****               0 ****  **** 
   4333  GOL          12005 ****               0 ****  **** 
   4334  GOL          12006 ****               0 ****  **** 
   4335  GOL          12007 ****               0 ****  **** 
   4336  GOL          12008 ****               0 ****  **** 
   4337  GOL          12009 ****               0 ****  **** 
   4338  GOL          12010 ****               0 ****  **** 
   4339  GOL          12011 ****               0 ****  **** 
   4340  GOL          12012 ****               0 ****  **** 
   4341  GOL          12013 ****               0 ****  **** 
   4342  GOL          12014 ****               0 ****  **** 
   4343  GOL          12015 ****               0 ****  **** 
   4344  GOL          12016 ****               0 ****  **** 
   4345  GOL          12017 ****               0 ****  **** 
   4346  GOL          12018 ****               0 ****  **** 
   4347  GOL          12019 ****               0 ****  **** 
   4348  GOL          12020 ****               0 ****  **** 
   4349  GOL          12021 ****               0 ****  **** 
   4350  GOL          12022 ****               0 ****  **** 
   4351  GOL          12023 ****               0 ****  **** 
   4352  GOL          12024 ****               0 ****  **** 
   4353  GOL          12025 ****               0 ****  **** 
   4354  GOL          12026 ****               0 ****  **** 
   4355  GOL          12027 ****               0 ****  **** 
   4356  GOL          12028 ****               0 ****  **** 
   4357  GOL          12029 ****               0 ****  **** 
   4358  GOL          12030 ****               0 ****  **** 
   4359  GOL          12031 ****               0 ****  **** 
   4360  GOL          12032 ****               0 ****  **** 
   4361  GOL          12033 ****               0 ****  **** 
   4362  GOL          12034 ****               0 ****  **** 
   4363  GOL          12035 ****               0 ****  **** 
   4364  GOL          12036 ****               0 ****  **** 
   4365  GOL          12037 ****               0 ****  **** 
   4366  GOL          12038 ****               0 ****  **** 
   4367  GOL          12039 ****               0 ****  **** 
   4368  GOL          12040 ****               0 ****  **** 
   4369  GOL          12041 ****               0 ****  **** 
   4370  GOL          12042 ****               0 ****  **** 
   4371  GOL          12043 ****               0 ****  **** 
   4372  GOL          12044 ****               0 ****  **** 
   4373  GOL          12045 ****               0 ****  **** 
   4374  GOL          12046 ****               0 ****  **** 
   4375  GOL          12047 ****               0 ****  **** 
   4376  GOL          12048 ****               0 ****  **** 
   4377  GOL          12049 ****               0 ****  **** 
   4378  GOL          12050 ****               0 ****  **** 
   4379  GOL          12051 ****               0 ****  **** 
   4380  GOL          12052 ****               0 ****  **** 
   4381  GOL          12053 ****               0 ****  **** 
   4382  GOL          12054 ****               0 ****  **** 
   4383  GOL          12055 ****               0 ****  **** 
   4384  GOL          12056 ****               0 ****  **** 
   4385  GOL          12057 ****               0 ****  **** 
   4386  GOL          12058 ****               0 ****  **** 
   4387  GOL          12059 ****               0 ****  **** 
   4388  GOL          12060 ****               0 ****  **** 
   4389  GOL          12061 ****               0 ****  **** 
   4390  GOL          12062 ****               0 ****  **** 
   4391  GOL          12063 ****               0 ****  **** 
   4392  GOL          12064 ****               0 ****  **** 
   4393  GOL          12065 ****               0 ****  **** 
   4394  GOL          12066 ****               0 ****  **** 
   4395  GOL          12067 ****               0 ****  **** 
   4396  GOL          12068 ****               0 ****  **** 
   4397  GOL          12069 ****               0 ****  **** 
   4398  GOL          12070 ****               0 ****  **** 
   4399  GOL          12071 ****               0 ****  **** 
   4400  GOL          12072 ****               0 ****  **** 
   4401  GOL          12073 ****               0 ****  **** 
   4402  GOL          12074 ****               0 ****  **** 
   4403  GOL          12075 ****               0 ****  **** 
   4404  GOL          12076 ****               0 ****  **** 
   4405  GOL          12077 ****               0 ****  **** 
   4406  GOL          12078 ****               0 ****  **** 
   4407  GOL          12079 ****               0 ****  **** 
   4408  GOL          12080 ****               0 ****  **** 
   4409  GOL          12081 ****               0 ****  **** 
   4410  GOL          12082 ****               0 ****  **** 
   4411  GOL          12083 ****               0 ****  **** 
   4412  GOL          12084 ****               0 ****  **** 
   4413  GOL          12085 ****               0 ****  **** 
   4414  GOL          12086 ****               0 ****  **** 
   4415  GOL          12087 ****               0 ****  **** 
   4416  GOL          12088 ****               0 ****  **** 
   4417  GOL          12089 ****               0 ****  **** 
   4418  GOL          12090 ****               0 ****  **** 
   4419  GOL          12091 ****               0 ****  **** 
   4420  GOL          12092 ****               0 ****  **** 
   4421  GOL          12093 ****               0 ****  **** 
   4422  GOL          12094 ****               0 ****  **** 
   4423  GOL          12095 ****               0 ****  **** 
   4424  GOL          12096 ****               0 ****  **** 
   4425  GOL          12097 ****               0 ****  **** 
   4426  GOL          12098 ****               0 ****  **** 
   4427  GOL          12099 ****               0 ****  **** 
   4428  GOL          12100 ****               0 ****  **** 
   4429  GOL          12101 ****               0 ****  **** 
   4430  GOL          12102 ****               0 ****  **** 
   4431  GOL          12103 ****               0 ****  **** 
   4432  GOL          12104 ****               0 ****  **** 
   4433  GOL          12105 ****               0 ****  **** 
   4434  GOL          12106 ****               0 ****  **** 
   4435  GOL          12107 ****               0 ****  **** 
   4436  GOL          12108 ****               0 ****  **** 
   4437  GOL          12109 ****               0 ****  **** 
   4438  GOL          12110 ****               0 ****  **** 
   4439  GOL          12111 ****               0 ****  **** 
   4440  GOL          12112 ****               0 ****  **** 
   4441  GOL          12113 ****               0 ****  **** 
   4442  GOL          12114 ****               0 ****  **** 
   4443  GOL          12115 ****               0 ****  **** 
   4444  GOL          12116 ****               0 ****  **** 
   4445  GOL          12117 ****               0 ****  **** 
   4446  GOL          12118 ****               0 ****  **** 
   4447  GOL          12119 ****               0 ****  **** 
   4448  GOL          12120 ****               0 ****  **** 
   4449  GOL          12121 ****               0 ****  **** 
   4450  GOL          12122 ****               0 ****  **** 
   4451  GOL          12123 ****               0 ****  **** 
   4452  GOL          12124 ****               0 ****  **** 
   4453  GOL          12125 ****               0 ****  **** 
   4454  GOL          12126 ****               0 ****  **** 
   4455  GOL          12127 ****               0 ****  **** 
   4456  GOL          12128 ****               0 ****  **** 
   4457  GOL          12129 ****               0 ****  **** 
   4458  GOL          12130 ****               0 ****  **** 
   4459  GOL          12131 ****               0 ****  **** 
   4460  GOL          12132 ****               0 ****  **** 
   4461  GOL          12133 ****               0 ****  **** 
   4462  GOL          12134 ****               0 ****  **** 
   4463  GOL          12135 ****               0 ****  **** 
   4464  GOL          12136 ****               0 ****  **** 
   4465  GOL          12137 ****               0 ****  **** 
   4466  GOL          12138 ****               0 ****  **** 
   4467  GOL          12139 ****               0 ****  **** 
   4468  GOL          12140 ****               0 ****  **** 
   4469  GOL          12141 ****               0 ****  **** 
   4470  GOL          12142 ****               0 ****  **** 
   4471  GOL          12143 ****               0 ****  **** 
   4472  GOL          12144 ****               0 ****  **** 
   4473  GOL          12145 ****               0 ****  **** 
   4474  GOL          12146 ****               0 ****  **** 
   4475  GOL          12147 ****               0 ****  **** 
   4476  GOL          12148 ****               0 ****  **** 
   4477  GOL          12149 ****               0 ****  **** 
   4478  GOL          12150 ****               0 ****  **** 
   4479  GOL          12151 ****               0 ****  **** 
   4480  GOL          12152 ****               0 ****  **** 
   4481  GOL          12153 ****               0 ****  **** 
   4482  GOL          12154 ****               0 ****  **** 
   4483  GOL          12155 ****               0 ****  **** 
   4484  GOL          12156 ****               0 ****  **** 
   4485  GOL          12157 ****               0 ****  **** 
   4486  GOL          12158 ****               0 ****  **** 
   4487  GOL          12159 ****               0 ****  **** 
   4488  GOL          12160 ****               0 ****  **** 
   4489  GOL          12161 ****               0 ****  **** 
   4490  GOL          12162 ****               0 ****  **** 
   4491  GOL          12163 ****               0 ****  **** 
   4492  GOL          12164 ****               0 ****  **** 
   4493  GOL          12165 ****               0 ****  **** 
   4494  GOL          12166 ****               0 ****  **** 
   4495  GOL          12167 ****               0 ****  **** 
   4496  GOL          12168 ****               0 ****  **** 
   4497  GOL          12169 ****               0 ****  **** 
   4498  GOL          12170 ****               0 ****  **** 
   4499  GOL          12171 ****               0 ****  **** 
   4500  GOL          12172 ****               0 ****  **** 
   4501  GOL          12173 ****               0 ****  **** 
   4502  GOL          12174 ****               0 ****  **** 
   4503  GOL          12175 ****               0 ****  **** 
   4504  GOL          12176 ****               0 ****  **** 
   4505  GOL          12177 ****               0 ****  **** 
   4506  GOL          12178 ****               0 ****  **** 
   4507  GOL          12179 ****               0 ****  **** 
   4508  GOL          12180 ****               0 ****  **** 
   4509  GOL          12181 ****               0 ****  **** 
   4510  GOL          12182 ****               0 ****  **** 
   4511  GOL          12183 ****               0 ****  **** 
   4512  GOL          12184 ****               0 ****  **** 
   4513  GOL          12185 ****               0 ****  **** 
   4514  GOL          12186 ****               0 ****  **** 
   4515  GOL          12187 ****               0 ****  **** 
   4516  GOL          12188 ****               0 ****  **** 
   4517  GOL          12189 ****               0 ****  **** 
   4518  GOL          12190 ****               0 ****  **** 
   4519  GOL          12191 ****               0 ****  **** 
   4520  GOL          12192 ****               0 ****  **** 
   4521  GOL          12193 ****               0 ****  **** 
   4522  GOL          12194 ****               0 ****  **** 
   4523  GOL          12195 ****               0 ****  **** 
   4524  GOL          12196 ****               0 ****  **** 
   4525  GOL          12197 ****               0 ****  **** 
   4526  GOL          12198 ****               0 ****  **** 
   4527  GOL          12199 ****               0 ****  **** 
   4528  GOL          12200 ****               0 ****  **** 
   4529  GOL          12201 ****               0 ****  **** 
   4530  GOL          12202 ****               0 ****  **** 
   4531  GOL          12203 ****               0 ****  **** 
   4532  GOL          12204 ****               0 ****  **** 
   4533  GOL          12205 ****               0 ****  **** 
   4534  GOL          12206 ****               0 ****  **** 
   4535  GOL          12207 ****               0 ****  **** 
   4536  GOL          12208 ****               0 ****  **** 
   4537  GOL          12209 ****               0 ****  **** 
   4538  GOL          12210 ****               0 ****  **** 
   4539  GOL          12211 ****               0 ****  **** 
   4540  GOL          12212 ****               0 ****  **** 
   4541  GOL          12213 ****               0 ****  **** 
   4542  GOL          12214 ****               0 ****  **** 
   4543  GOL          12215 ****               0 ****  **** 
   4544  GOL          12216 ****               0 ****  **** 
   4545  GOL          12217 ****               0 ****  **** 
   4546  GOL          12218 ****               0 ****  **** 
   4547  GOL          12219 ****               0 ****  **** 
   4548  GOL          12220 ****               0 ****  **** 
   4549  GOL          12221 ****               0 ****  **** 
   4550  GOL          12222 ****               0 ****  **** 
   4551  GOL          12223 ****               0 ****  **** 
   4552  GOL          12224 ****               0 ****  **** 
   4553  GOL          12225 ****               0 ****  **** 
   4554  GOL          12226 ****               0 ****  **** 
   4555  GOL          12227 ****               0 ****  **** 
   4556  GOL          12228 ****               0 ****  **** 
   4557  GOL          12229 ****               0 ****  **** 
   4558  GOL          12230 ****               0 ****  **** 
   4559  GOL          12231 ****               0 ****  **** 
   4560  GOL          12232 ****               0 ****  **** 
   4561  GOL          12233 ****               0 ****  **** 
   4562  GOL          12234 ****               0 ****  **** 
   4563  GOL          12235 ****               0 ****  **** 
   4564  GOL          12236 ****               0 ****  **** 
   4565  GOL          12237 ****               0 ****  **** 
   4566  GOL          12238 ****               0 ****  **** 
   4567  GOL          12239 ****               0 ****  **** 
   4568  GOL          12240 ****               0 ****  **** 
   4569  GOL          12241 ****               0 ****  **** 
   4570  GOL          12242 ****               0 ****  **** 
   4571  GOL          12243 ****               0 ****  **** 
   4572  GOL          12244 ****               0 ****  **** 
   4573  GOL          12245 ****               0 ****  **** 
   4574  GOL          12246 ****               0 ****  **** 
   4575  GOL          12247 ****               0 ****  **** 
   4576  GOL          12248 ****               0 ****  **** 
   4577  GOL          12249 ****               0 ****  **** 
   4578  GOL          12250 ****               0 ****  **** 
   4579  GOL          12251 ****               0 ****  **** 
   4580  GOL          12252 ****               0 ****  **** 
   4581  GOL          12253 ****               0 ****  **** 
   4582  GOL          12254 ****               0 ****  **** 
   4583  GOL          12255 ****               0 ****  **** 
   4584  GOL          12256 ****               0 ****  **** 
   4585  GOL          12257 ****               0 ****  **** 
   4586  GOL          12258 ****               0 ****  **** 
   4587  GOL          12259 ****               0 ****  **** 
   4588  GOL          12260 ****               0 ****  **** 
   4589  GOL          12261 ****               0 ****  **** 
   4590  GOL          12262 ****               0 ****  **** 
   4591  GOL          12263 ****               0 ****  **** 
   4592  GOL          12264 ****               0 ****  **** 
   4593  GOL          12265 ****               0 ****  **** 
   4594  GOL          12266 ****               0 ****  **** 
   4595  GOL          12267 ****               0 ****  **** 
   4596  GOL          12268 ****               0 ****  **** 
   4597  GOL          12269 ****               0 ****  **** 
   4598  GOL          12270 ****               0 ****  **** 
   4599  GOL          12271 ****               0 ****  **** 
   4600  GOL          12272 ****               0 ****  **** 
   4601  GOL          12273 ****               0 ****  **** 
   4602  GOL          12274 ****               0 ****  **** 
   4603  GOL          12275 ****               0 ****  **** 
   4604  GOL          12276 ****               0 ****  **** 
   4605  GOL          12277 ****               0 ****  **** 
   4606  GOL          12278 ****               0 ****  **** 
   4607  GOL          12279 ****               0 ****  **** 
   4608  GOL          12280 ****               0 ****  **** 
   4609  GOL          12281 ****               0 ****  **** 
   4610  GOL          12282 ****               0 ****  **** 
   4611  GOL          12283 ****               0 ****  **** 
   4612  GOL          12284 ****               0 ****  **** 
   4613  GOL          12285 ****               0 ****  **** 
   4614  GOL          12286 ****               0 ****  **** 
   4615  GOL          12287 ****               0 ****  **** 
   4616  GOL          12288 ****               0 ****  **** 
   4617  GOL          12289 ****               0 ****  **** 
   4618  GOL          12290 ****               0 ****  **** 
   4619  GOL          12291 ****               0 ****  **** 
   4620  GOL          12292 ****               0 ****  **** 
   4621  GOL          12293 ****               0 ****  **** 
   4622  GOL          12294 ****               0 ****  **** 
   4623  GOL          12295 ****               0 ****  **** 
   4624  GOL          12296 ****               0 ****  **** 
   4625  GOL          12297 ****               0 ****  **** 
   4626  GOL          12298 ****               0 ****  **** 
   4627  GOL          12299 ****               0 ****  **** 
   4628  GOL          12300 ****               0 ****  **** 
   4629  GOL          12301 ****               0 ****  **** 
   4630  GOL          12302 ****               0 ****  **** 
   4631  GOL          12303 ****               0 ****  **** 
   4632  GOL          12304 ****               0 ****  **** 
   4633  GOL          12305 ****               0 ****  **** 
   4634  GOL          12306 ****               0 ****  **** 
   4635  GOL          12307 ****               0 ****  **** 
   4636  GOL          12308 ****               0 ****  **** 
   4637  GOL          12309 ****               0 ****  **** 
   4638  GOL          12310 ****               0 ****  **** 
   4639  GOL          12311 ****               0 ****  **** 
   4640  GOL          12312 ****               0 ****  **** 
   4641  GOL          12313 ****               0 ****  **** 
   4642  GOL          12314 ****               0 ****  **** 
   4643  GOL          12315 ****               0 ****  **** 
   4644  GOL          12316 ****               0 ****  **** 
   4645  GOL          12317 ****               0 ****  **** 
   4646  GOL          12318 ****               0 ****  **** 
   4647  GOL          12319 ****               0 ****  **** 
   4648  GOL          12320 ****               0 ****  **** 
   4649  GOL          12321 ****               0 ****  **** 
   4650  GOL          12322 ****               0 ****  **** 
   4651  GOL          12323 ****               0 ****  **** 
   4652  GOL          12324 ****               0 ****  **** 
   4653  GOL          12325 ****               0 ****  **** 
   4654  GOL          12326 ****               0 ****  **** 
   4655  GOL          12327 ****               0 ****  **** 
   4656  GOL          12328 ****               0 ****  **** 
   4657  GOL          12329 ****               0 ****  **** 
   4658  GOL          12330 ****               0 ****  **** 
   4659  GOL          12331 ****               0 ****  **** 
   4660  GOL          12332 ****               0 ****  **** 
   4661  GOL          12333 ****               0 ****  **** 
   4662  GOL          12334 ****               0 ****  **** 
   4663  GOL          12335 ****               0 ****  **** 
   4664  GOL          12336 ****               0 ****  **** 
   4665  GOL          12337 ****               0 ****  **** 
   4666  GOL          12338 ****               0 ****  **** 
   4667  GOL          12339 ****               0 ****  **** 
   4668  GOL          12340 ****               0 ****  **** 
   4669  GOL          12341 ****               0 ****  **** 
   4670  GOL          12342 ****               0 ****  **** 
   4671  GOL          12343 ****               0 ****  **** 
   4672  GOL          12344 ****               0 ****  **** 
   4673  GOL          12345 ****               0 ****  **** 
   4674  GOL          12346 ****               0 ****  **** 
   4675  GOL          12347 ****               0 ****  **** 
   4676  GOL          12348 ****               0 ****  **** 
   4677  GOL          12349 ****               0 ****  **** 
   4678  GOL          12350 ****               0 ****  **** 
   4679  GOL          12351 ****               0 ****  **** 
   4680  GOL          12352 ****               0 ****  **** 
   4681  GOL          12353 ****               0 ****  **** 
   4682  GOL          12354 ****               0 ****  **** 
   4683  GOL          12355 ****               0 ****  **** 
   4684  GOL          12356 ****               0 ****  **** 
   4685  GOL          12357 ****               0 ****  **** 
   4686  GOL          12358 ****               0 ****  **** 
   4687  GOL          12359 ****               0 ****  **** 
   4688  GOL          12360 ****               0 ****  **** 
   4689  GOL          12361 ****               0 ****  **** 
   4690  GOL          12362 ****               0 ****  **** 
   4691  GOL          12363 ****               0 ****  **** 
   4692  GOL          12364 ****               0 ****  **** 
   4693  GOL          12365 ****               0 ****  **** 
   4694  GOL          12366 ****               0 ****  **** 
   4695  GOL          12367 ****               0 ****  **** 
   4696  GOL          12368 ****               0 ****  **** 
   4697  GOL          12369 ****               0 ****  **** 
   4698  GOL          12370 ****               0 ****  **** 
   4699  GOL          12371 ****               0 ****  **** 
   4700  GOL          12372 ****               0 ****  **** 
   4701  GOL          12373 ****               0 ****  **** 
   4702  GOL          12374 ****               0 ****  **** 
   4703  GOL          12375 ****               0 ****  **** 
   4704  GOL          12376 ****               0 ****  **** 
   4705  GOL          12377 ****               0 ****  **** 
   4706  GOL          12378 ****               0 ****  **** 
   4707  GOL          12379 ****               0 ****  **** 
   4708  GOL          12380 ****               0 ****  **** 
   4709  GOL          12381 ****               0 ****  **** 
   4710  GOL          12382 ****               0 ****  **** 
   4711  GOL          12383 ****               0 ****  **** 
   4712  GOL          12384 ****               0 ****  **** 
   4713  GOL          12385 ****               0 ****  **** 
   4714  GOL          12386 ****               0 ****  **** 
   4715  GOL          12387 ****               0 ****  **** 
   4716  GOL          12388 ****               0 ****  **** 
   4717  GOL          12389 ****               0 ****  **** 
   4718  GOL          12390 ****               0 ****  **** 
   4719  GOL          12391 ****               0 ****  **** 
   4720  GOL          12392 ****               0 ****  **** 
   4721  GOL          12393 ****               0 ****  **** 
   4722  GOL          12394 ****               0 ****  **** 
   4723  GOL          12395 ****               0 ****  **** 
   4724  GOL          12396 ****               0 ****  **** 
   4725  GOL          12397 ****               0 ****  **** 
   4726  GOL          12398 ****               0 ****  **** 
   4727  GOL          12399 ****               0 ****  **** 
   4728  GOL          12400 ****               0 ****  **** 
   4729  GOL          12401 ****               0 ****  **** 
   4730  GOL          12402 ****               0 ****  **** 
   4731  GOL          12403 ****               0 ****  **** 
   4732  GOL          12404 ****               0 ****  **** 
   4733  GOL          12405 ****               0 ****  **** 
   4734  GOL          12406 ****               0 ****  **** 
   4735  GOL          12407 ****               0 ****  **** 
   4736  GOL          12408 ****               0 ****  **** 
   4737  GOL          12409 ****               0 ****  **** 
   4738  GOL          12410 ****               0 ****  **** 
   4739  GOL          12411 ****               0 ****  **** 
   4740  GOL          12412 ****               0 ****  **** 
   4741  GOL          12413 ****               0 ****  **** 
   4742  GOL          12414 ****               0 ****  **** 
   4743  GOL          12415 ****               0 ****  **** 
   4744  GOL          12416 ****               0 ****  **** 
   4745  GOL          12417 ****               0 ****  **** 
   4746  GOL          12418 ****               0 ****  **** 
   4747  GOL          12419 ****               0 ****  **** 
   4748  GOL          12420 ****               0 ****  **** 
   4749  GOL          12421 ****               0 ****  **** 
   4750  GOL          12422 ****               0 ****  **** 
   4751  GOL          12423 ****               0 ****  **** 
   4752  GOL          12424 ****               0 ****  **** 
   4753  GOL          12425 ****               0 ****  **** 
   4754  GOL          12426 ****               0 ****  **** 
   4755  GOL          12427 ****               0 ****  **** 
   4756  GOL          12428 ****               0 ****  **** 
   4757  GOL          12429 ****               0 ****  **** 
   4758  GOL          12430 ****               0 ****  **** 
   4759  GOL          12431 ****               0 ****  **** 
   4760  GOL          12432 ****               0 ****  **** 
   4761  GOL          12433 ****               0 ****  **** 
   4762  GOL          12434 ****               0 ****  **** 
   4763  GOL          12435 ****               0 ****  **** 
   4764  GOL          12436 ****               0 ****  **** 
   4765  GOL          12437 ****               0 ****  **** 
   4766  GOL          12438 ****               0 ****  **** 
   4767  GOL          12439 ****               0 ****  **** 
   4768  GOL          12440 ****               0 ****  **** 
   4769  GOL          12441 ****               0 ****  **** 
   4770  GOL          12442 ****               0 ****  **** 
   4771  GOL          12443 ****               0 ****  **** 
   4772  GOL          12444 ****               0 ****  **** 
   4773  GOL          12445 ****               0 ****  **** 
   4774  GOL          12446 ****               0 ****  **** 
   4775  GOL          12447 ****               0 ****  **** 
   4776  GOL          12448 ****               0 ****  **** 
   4777  GOL          12449 ****               0 ****  **** 
   4778  GOL          12450 ****               0 ****  **** 
   4779  GOL          12451 ****               0 ****  **** 
   4780  GOL          12452 ****               0 ****  **** 
   4781  GOL          12453 ****               0 ****  **** 
   4782  GOL          12454 ****               0 ****  **** 
   4783  GOL          12455 ****               0 ****  **** 
   4784  GOL          12456 ****               0 ****  **** 
   4785  GOL          12457 ****               0 ****  **** 
   4786  GOL          12458 ****               0 ****  **** 
   4787  GOL          12459 ****               0 ****  **** 
   4788  GOL          12460 ****               0 ****  **** 
   4789  GOL          12461 ****               0 ****  **** 
   4790  GOL          12462 ****               0 ****  **** 
   4791  GOL          12463 ****               0 ****  **** 
   4792  GOL          12464 ****               0 ****  **** 
   4793  GOL          12465 ****               0 ****  **** 
   4794  GOL          12466 ****               0 ****  **** 
   4795  GOL          12467 ****               0 ****  **** 
   4796  GOL          12468 ****               0 ****  **** 
   4797  GOL          12469 ****               0 ****  **** 
   4798  GOL          12470 ****               0 ****  **** 
   4799  GOL          12471 ****               0 ****  **** 
   4800  GOL          12472 ****               0 ****  **** 
   4801  GOL          12473 ****               0 ****  **** 
   4802  GOL          12474 ****               0 ****  **** 
   4803  GOL          12475 ****               0 ****  **** 
   4804  GOL          12476 ****               0 ****  **** 
   4805  GOL          12477 ****               0 ****  **** 
   4806  GOL          12478 ****               0 ****  **** 
   4807  GOL          12479 ****               0 ****  **** 
   4808  GOL          12480 ****               0 ****  **** 
   4809  GOL          12481 ****               0 ****  **** 
   4810  GOL          12482 ****               0 ****  **** 
   4811  GOL          12483 ****               0 ****  **** 
   4812  GOL          12484 ****               0 ****  **** 
   4813  GOL          12485 ****               0 ****  **** 
   4814  GOL          12486 ****               0 ****  **** 
   4815  GOL          12487 ****               0 ****  **** 
   4816  GOL          12488 ****               0 ****  **** 
   4817  GOL          12489 ****               0 ****  **** 
   4818  GOL          12490 ****               0 ****  **** 
   4819  GOL          12491 ****               0 ****  **** 
   4820  GOL          12492 ****               0 ****  **** 
   4821  GOL          12493 ****               0 ****  **** 
   4822  GOL          12494 ****               0 ****  **** 
   4823  GOL          12495 ****               0 ****  **** 
   4824  GOL          12496 ****               0 ****  **** 
   4825  GOL          12497 ****               0 ****  **** 
   4826  GOL          12498 ****               0 ****  **** 
   4827  GOL          12499 ****               0 ****  **** 
   4828  GOL          12500 ****               0 ****  **** 
   4829  GOL          12501 ****               0 ****  **** 
   4830  GOL          12502 ****               0 ****  **** 
   4831  GOL          12503 ****               0 ****  **** 
   4832  GOL          12504 ****               0 ****  **** 
   4833  GOL          12505 ****               0 ****  **** 
   4834  GOL          12506 ****               0 ****  **** 
   4835  GOL          12507 ****               0 ****  **** 
   4836  GOL          12508 ****               0 ****  **** 
   4837  GOL          12509 ****               0 ****  **** 
   4838  GOL          12510 ****               0 ****  **** 
   4839  GOL          12511 ****               0 ****  **** 
   4840  GOL          12512 ****               0 ****  **** 
   4841  GOL          12513 ****               0 ****  **** 
   4842  GOL          12514 ****               0 ****  **** 
   4843  GOL          12515 ****               0 ****  **** 
   4844  GOL          12516 ****               0 ****  **** 
   4845  GOL          12517 ****               0 ****  **** 
   4846  GOL          12518 ****               0 ****  **** 
   4847  GOL          12519 ****               0 ****  **** 
   4848  GOL          12520 ****               0 ****  **** 
   4849  GOL          12521 ****               0 ****  **** 
   4850  GOL          12522 ****               0 ****  **** 
   4851  GOL          12523 ****               0 ****  **** 
   4852  GOL          12524 ****               0 ****  **** 
   4853  GOL          12525 ****               0 ****  **** 
   4854  GOL          12526 ****               0 ****  **** 
   4855  GOL          12527 ****               0 ****  **** 
   4856  GOL          12528 ****               0 ****  **** 
   4857  GOL          12529 ****               0 ****  **** 
   4858  GOL          12530 ****               0 ****  **** 
   4859  GOL          12531 ****               0 ****  **** 
   4860  GOL          12532 ****               0 ****  **** 
   4861  GOL          12533 ****               0 ****  **** 
   4862  GOL          12534 ****               0 ****  **** 
   4863  GOL          12535 ****               0 ****  **** 
   4864  GOL          12536 ****               0 ****  **** 
   4865  GOL          12537 ****               0 ****  **** 
   4866  GOL          12538 ****               0 ****  **** 
   4867  GOL          12539 ****               0 ****  **** 
   4868  GOL          12540 ****               0 ****  **** 
   4869  GOL          12541 ****               0 ****  **** 
   4870  GOL          12542 ****               0 ****  **** 
   4871  GOL          12543 ****               0 ****  **** 
   4872  GOL          12544 ****               0 ****  **** 
   4873  GOL          12545 ****               0 ****  **** 
   4874  GOL          12546 ****               0 ****  **** 
   4875  GOL          12547 ****               0 ****  **** 
   4876  GOL          12548 ****               0 ****  **** 
   4877  GOL          12549 ****               0 ****  **** 
   4878  GOL          12550 ****               0 ****  **** 
   4879  GOL          12551 ****               0 ****  **** 
   4880  GOL          12552 ****               0 ****  **** 
   4881  GOL          12553 ****               0 ****  **** 
   4882  GOL          12554 ****               0 ****  **** 
   4883  GOL          12555 ****               0 ****  **** 
   4884  GOL          12556 ****               0 ****  **** 
   4885  GOL          12557 ****               0 ****  **** 
   4886  GOL          12558 ****               0 ****  **** 
   4887  GOL          12559 ****               0 ****  **** 
   4888  GOL          12560 ****               0 ****  **** 
   4889  GOL          12561 ****               0 ****  **** 
   4890  GOL          12562 ****               0 ****  **** 
   4891  GOL          12563 ****               0 ****  **** 
   4892  GOL          12564 ****               0 ****  **** 
   4893  GOL          12565 ****               0 ****  **** 
   4894  GOL          12566 ****               0 ****  **** 
   4895  GOL          12567 ****               0 ****  **** 
   4896  GOL          12568 ****               0 ****  **** 
   4897  GOL          12569 ****               0 ****  **** 
   4898  GOL          12570 ****               0 ****  **** 
   4899  GOL          12571 ****               0 ****  **** 
   4900  GOL          12572 ****               0 ****  **** 
   4901  GOL          12573 ****               0 ****  **** 
   4902  GOL          12574 ****               0 ****  **** 
   4903  GOL          12575 ****               0 ****  **** 
   4904  GOL          12576 ****               0 ****  **** 
   4905  GOL          12577 ****               0 ****  **** 
   4906  GOL          12578 ****               0 ****  **** 
   4907  GOL          12579 ****               0 ****  **** 
   4908  GOL          12580 ****               0 ****  **** 
   4909  GOL          12581 ****               0 ****  **** 
   4910  GOL          12582 ****               0 ****  **** 
   4911  GOL          12583 ****               0 ****  **** 
   4912  GOL          12584 ****               0 ****  **** 
   4913  GOL          12585 ****               0 ****  **** 
   4914  GOL          12586 ****               0 ****  **** 
   4915  GOL          12587 ****               0 ****  **** 
   4916  GOL          12588 ****               0 ****  **** 
   4917  GOL          12589 ****               0 ****  **** 
   4918  GOL          12590 ****               0 ****  **** 
   4919  GOL          12591 ****               0 ****  **** 
   4920  GOL          12592 ****               0 ****  **** 
   4921  GOL          12593 ****               0 ****  **** 
   4922  GOL          12594 ****               0 ****  **** 
   4923  GOL          12595 ****               0 ****  **** 
   4924  GOL          12596 ****               0 ****  **** 
   4925  GOL          12597 ****               0 ****  **** 
   4926  GOL          12598 ****               0 ****  **** 
   4927  GOL          12599 ****               0 ****  **** 
   4928  GOL          12600 ****               0 ****  **** 
   4929  GOL          12601 ****               0 ****  **** 
   4930  GOL          12602 ****               0 ****  **** 
   4931  GOL          12603 ****               0 ****  **** 
   4932  GOL          12604 ****               0 ****  **** 
   4933  GOL          12605 ****               0 ****  **** 
   4934  GOL          12606 ****               0 ****  **** 
   4935  GOL          12607 ****               0 ****  **** 
   4936  GOL          12608 ****               0 ****  **** 
   4937  GOL          12609 ****               0 ****  **** 
   4938  GOL          12610 ****               0 ****  **** 
   4939  GOL          12611 ****               0 ****  **** 
   4940  GOL          12612 ****               0 ****  **** 
   4941  GOL          12613 ****               0 ****  **** 
   4942  GOL          12614 ****               0 ****  **** 
   4943  GOL          12615 ****               0 ****  **** 
   4944  GOL          12616 ****               0 ****  **** 
   4945  GOL          12617 ****               0 ****  **** 
   4946  GOL          12618 ****               0 ****  **** 
   4947  GOL          12619 ****               0 ****  **** 
   4948  GOL          12620 ****               0 ****  **** 
   4949  GOL          12621 ****               0 ****  **** 
   4950  GOL          12622 ****               0 ****  **** 
   4951  GOL          12623 ****               0 ****  **** 
   4952  GOL          12624 ****               0 ****  **** 
   4953  GOL          12625 ****               0 ****  **** 
   4954  GOL          12626 ****               0 ****  **** 
   4955  GOL          12627 ****               0 ****  **** 
   4956  GOL          12628 ****               0 ****  **** 
   4957  GOL          12629 ****               0 ****  **** 
   4958  GOL          12630 ****               0 ****  **** 
   4959  GOL          12631 ****               0 ****  **** 
   4960  GOL          12632 ****               0 ****  **** 
   4961  GOL          12633 ****               0 ****  **** 
   4962  GOL          12634 ****               0 ****  **** 
   4963  GOL          12635 ****               0 ****  **** 
   4964  GOL          12636 ****               0 ****  **** 
   4965  GOL          12637 ****               0 ****  **** 
   4966  GOL          12638 ****               0 ****  **** 
   4967  GOL          12639 ****               0 ****  **** 
   4968  GOL          12640 ****               0 ****  **** 
   4969  GOL          12641 ****               0 ****  **** 
   4970  GOL          12642 ****               0 ****  **** 
   4971  GOL          12643 ****               0 ****  **** 
   4972  GOL          12644 ****               0 ****  **** 
   4973  GOL          12645 ****               0 ****  **** 
   4974  GOL          12646 ****               0 ****  **** 
   4975  GOL          12647 ****               0 ****  **** 
   4976  GOL          12648 ****               0 ****  **** 
   4977  GOL          12649 ****               0 ****  **** 
   4978  GOL          12650 ****               0 ****  **** 
   4979  GOL          12651 ****               0 ****  **** 
   4980  GOL          12652 ****               0 ****  **** 
   4981  GOL          12653 ****               0 ****  **** 
   4982  GOL          12654 ****               0 ****  **** 
   4983  GOL          12655 ****               0 ****  **** 
   4984  GOL          12656 ****               0 ****  **** 
   4985  GOL          12657 ****               0 ****  **** 
   4986  GOL          12658 ****               0 ****  **** 
   4987  GOL          12659 ****               0 ****  **** 
   4988  GOL          12660 ****               0 ****  **** 
   4989  GOL          12661 ****               0 ****  **** 
   4990  GOL          12662 ****               0 ****  **** 
   4991  GOL          12663 ****               0 ****  **** 
   4992  GOL          12664 ****               0 ****  **** 
   4993  GOL          12665 ****               0 ****  **** 
   4994  GOL          12666 ****               0 ****  **** 
   4995  GOL          12667 ****               0 ****  **** 
   4996  GOL          12668 ****               0 ****  **** 
   4997  GOL          12669 ****               0 ****  **** 
   4998  GOL          12670 ****               0 ****  **** 
   4999  GOL          12671 ****               0 ****  **** 
   5000  GOL          12672 ****               0 ****  **** 
   5001  GOL          12673 ****               0 ****  **** 
   5002  GOL          12674 ****               0 ****  **** 
   5003  GOL          12675 ****               0 ****  **** 
   5004  GOL          12676 ****               0 ****  **** 
   5005  GOL          12677 ****               0 ****  **** 
   5006  GOL          12678 ****               0 ****  **** 
   5007  GOL          12679 ****               0 ****  **** 
   5008  GOL          12680 ****               0 ****  **** 
   5009  GOL          12681 ****               0 ****  **** 
   5010  GOL          12682 ****               0 ****  **** 
   5011  GOL          12683 ****               0 ****  **** 
   5012  GOL          12684 ****               0 ****  **** 
   5013  GOL          12685 ****               0 ****  **** 
   5014  GOL          12686 ****               0 ****  **** 
   5015  GOL          12687 ****               0 ****  **** 
   5016  GOL          12688 ****               0 ****  **** 
   5017  GOL          12689 ****               0 ****  **** 
   5018  GOL          12690 ****               0 ****  **** 
   5019  GOL          12691 ****               0 ****  **** 
   5020  GOL          12692 ****               0 ****  **** 
   5021  GOL          12693 ****               0 ****  **** 
   5022  GOL          12694 ****               0 ****  **** 
   5023  GOL          12695 ****               0 ****  **** 
   5024  GOL          12696 ****               0 ****  **** 
   5025  GOL          12697 ****               0 ****  **** 
   5026  GOL          12698 ****               0 ****  **** 
   5027  GOL          12699 ****               0 ****  **** 
   5028  GOL          12700 ****               0 ****  **** 
   5029  GOL          12701 ****               0 ****  **** 
   5030  GOL          12702 ****               0 ****  **** 
   5031  GOL          12703 ****               0 ****  **** 
   5032  GOL          12704 ****               0 ****  **** 
   5033  GOL          12705 ****               0 ****  **** 
   5034  GOL          12706 ****               0 ****  **** 
   5035  GOL          12707 ****               0 ****  **** 
   5036  GOL          12708 ****               0 ****  **** 
   5037  GOL          12709 ****               0 ****  **** 
   5038  GOL          12710 ****               0 ****  **** 
   5039  GOL          12711 ****               0 ****  **** 
   5040  GOL          12712 ****               0 ****  **** 
   5041  GOL          12713 ****               0 ****  **** 
   5042  GOL          12714 ****               0 ****  **** 
   5043  GOL          12715 ****               0 ****  **** 
   5044  GOL          12716 ****               0 ****  **** 
   5045  GOL          12717 ****               0 ****  **** 
   5046  GOL          12718 ****               0 ****  **** 
   5047  GOL          12719 ****               0 ****  **** 
   5048  GOL          12720 ****               0 ****  **** 
   5049  GOL          12721 ****               0 ****  **** 
   5050  GOL          12722 ****               0 ****  **** 
   5051  GOL          12723 ****               0 ****  **** 
   5052  GOL          12724 ****               0 ****  **** 
   5053  GOL          12725 ****               0 ****  **** 
   5054  GOL          12726 ****               0 ****  **** 
   5055  GOL          12727 ****               0 ****  **** 
   5056  GOL          12728 ****               0 ****  **** 
   5057  GOL          12729 ****               0 ****  **** 
   5058  GOL          12730 ****               0 ****  **** 
   5059  GOL          12731 ****               0 ****  **** 
   5060  GOL          12732 ****               0 ****  **** 
   5061  GOL          12733 ****               0 ****  **** 
   5062  GOL          12734 ****               0 ****  **** 
   5063  GOL          12735 ****               0 ****  **** 
   5064  GOL          12736 ****               0 ****  **** 
   5065  GOL          12737 ****               0 ****  **** 
   5066  GOL          12738 ****               0 ****  **** 
   5067  GOL          12739 ****               0 ****  **** 
   5068  GOL          12740 ****               0 ****  **** 
   5069  GOL          12741 ****               0 ****  **** 
   5070  GOL          12742 ****               0 ****  **** 
   5071  GOL          12743 ****               0 ****  **** 
   5072  GOL          12744 ****               0 ****  **** 
   5073  GOL          12745 ****               0 ****  **** 
   5074  GOL          12746 ****               0 ****  **** 
   5075  GOL          12747 ****               0 ****  **** 
   5076  GOL          12748 ****               0 ****  **** 
   5077  GOL          12749 ****               0 ****  **** 
   5078  GOL          12750 ****               0 ****  **** 
   5079  GOL          12751 ****               0 ****  **** 
   5080  GOL          12752 ****               0 ****  **** 
   5081  GOL          12753 ****               0 ****  **** 
   5082  GOL          12754 ****               0 ****  **** 
   5083  GOL          12755 ****               0 ****  **** 
   5084  GOL          12756 ****               0 ****  **** 
   5085  GOL          12757 ****               0 ****  **** 
   5086  GOL          12758 ****               0 ****  **** 
   5087  GOL          12759 ****               0 ****  **** 
   5088  GOL          12760 ****               0 ****  **** 
   5089  GOL          12761 ****               0 ****  **** 
   5090  GOL          12762 ****               0 ****  **** 
   5091  GOL          12763 ****               0 ****  **** 
   5092  GOL          12764 ****               0 ****  **** 
   5093  GOL          12765 ****               0 ****  **** 
   5094  GOL          12766 ****               0 ****  **** 
   5095  GOL          12767 ****               0 ****  **** 
   5096  GOL          12768 ****               0 ****  **** 
   5097  GOL          12769 ****               0 ****  **** 
   5098  GOL          12770 ****               0 ****  **** 
   5099  GOL          12771 ****               0 ****  **** 
   5100  GOL          12772 ****               0 ****  **** 
   5101  GOL          12773 ****               0 ****  **** 
   5102  GOL          12774 ****               0 ****  **** 
   5103  GOL          12775 ****               0 ****  **** 
   5104  GOL          12776 ****               0 ****  **** 
   5105  GOL          12777 ****               0 ****  **** 
   5106  GOL          12778 ****               0 ****  **** 
   5107  GOL          12779 ****               0 ****  **** 
   5108  GOL          12780 ****               0 ****  **** 
   5109  GOL          12781 ****               0 ****  **** 
   5110  GOL          12782 ****               0 ****  **** 
   5111  GOL          12783 ****               0 ****  **** 
   5112  GOL          12784 ****               0 ****  **** 
   5113  GOL          12785 ****               0 ****  **** 
   5114  GOL          12786 ****               0 ****  **** 
   5115  GOL          12787 ****               0 ****  **** 
   5116  GOL          12788 ****               0 ****  **** 
   5117  GOL          12789 ****               0 ****  **** 
   5118  GOL          12790 ****               0 ****  **** 
   5119  GOL          12791 ****               0 ****  **** 
   5120  GOL          12792 ****               0 ****  **** 
   5121  GOL          12793 ****               0 ****  **** 
   5122  GOL          12794 ****               0 ****  **** 
   5123  GOL          12795 ****               0 ****  **** 
   5124  GOL          12796 ****               0 ****  **** 
   5125  GOL          12797 ****               0 ****  **** 
   5126  GOL          12798 ****               0 ****  **** 
   5127  GOL          12799 ****               0 ****  **** 
   5128  GOL          12800 ****               0 ****  **** 
   5129  GOL          12801 ****               0 ****  **** 
   5130  GOL          12802 ****               0 ****  **** 
   5131  GOL          12803 ****               0 ****  **** 
   5132  GOL          12804 ****               0 ****  **** 
   5133  GOL          12805 ****               0 ****  **** 
   5134  GOL          12806 ****               0 ****  **** 
   5135  GOL          12807 ****               0 ****  **** 
   5136  GOL          12808 ****               0 ****  **** 
   5137  GOL          12809 ****               0 ****  **** 
   5138  GOL          12810 ****               0 ****  **** 
   5139  GOL          12811 ****               0 ****  **** 
   5140  GOL          12812 ****               0 ****  **** 
   5141  GOL          12813 ****               0 ****  **** 
   5142  GOL          12814 ****               0 ****  **** 
   5143  GOL          12815 ****               0 ****  **** 
   5144  GOL          12816 ****               0 ****  **** 
   5145  GOL          12817 ****               0 ****  **** 
   5146  GOL          12818 ****               0 ****  **** 
   5147  GOL          12819 ****               0 ****  **** 
   5148  GOL          12820 ****               0 ****  **** 
   5149  GOL          12821 ****               0 ****  **** 
   5150  GOL          12822 ****               0 ****  **** 
   5151  GOL          12823 ****               0 ****  **** 
   5152  GOL          12824 ****               0 ****  **** 
   5153  GOL          12825 ****               0 ****  **** 
   5154  GOL          12826 ****               0 ****  **** 
   5155  GOL          12827 ****               0 ****  **** 
   5156  GOL          12828 ****               0 ****  **** 
   5157  GOL          12829 ****               0 ****  **** 
   5158  GOL          12830 ****               0 ****  **** 
   5159  GOL          12831 ****               0 ****  **** 
   5160  GOL          12832 ****               0 ****  **** 
   5161  GOL          12833 ****               0 ****  **** 
   5162  GOL          12834 ****               0 ****  **** 
   5163  GOL          12835 ****               0 ****  **** 
   5164  GOL          12836 ****               0 ****  **** 
   5165  GOL          12837 ****               0 ****  **** 
   5166  GOL          12838 ****               0 ****  **** 
   5167  GOL          12839 ****               0 ****  **** 
   5168  GOL          12840 ****               0 ****  **** 
   5169  GOL          12841 ****               0 ****  **** 
   5170  GOL          12842 ****               0 ****  **** 
   5171  GOL          12843 ****               0 ****  **** 
   5172  GOL          12844 ****               0 ****  **** 
   5173  GOL          12845 ****               0 ****  **** 
   5174  GOL          12846 ****               0 ****  **** 
   5175  GOL          12847 ****               0 ****  **** 
   5176  GOL          12848 ****               0 ****  **** 
   5177  GOL          12849 ****               0 ****  **** 
   5178  GOL          12850 ****               0 ****  **** 
   5179  GOL          12851 ****               0 ****  **** 
   5180  GOL          12852 ****               0 ****  **** 
   5181  GOL          12853 ****               0 ****  **** 
   5182  GOL          12854 ****               0 ****  **** 
   5183  GOL          12855 ****               0 ****  **** 
   5184  GOL          12856 ****               0 ****  **** 
   5185  GOL          12857 ****               0 ****  **** 
   5186  GOL          12858 ****               0 ****  **** 
   5187  GOL          12859 ****               0 ****  **** 
   5188  GOL          12860 ****               0 ****  **** 
   5189  GOL          12861 ****               0 ****  **** 
   5190  GOL          12862 ****               0 ****  **** 
   5191  GOL          12863 ****               0 ****  **** 
   5192  GOL          12864 ****               0 ****  **** 
   5193  GOL          12865 ****               0 ****  **** 
   5194  GOL          12866 ****               0 ****  **** 
   5195  GOL          12867 ****               0 ****  **** 
   5196  GOL          12868 ****               0 ****  **** 
   5197  GOL          12869 ****               0 ****  **** 
   5198  GOL          12870 ****               0 ****  **** 
   5199  GOL          12871 ****               0 ****  **** 
   5200  GOL          12872 ****               0 ****  **** 
   5201  GOL          12873 ****               0 ****  **** 
   5202  GOL          12874 ****               0 ****  **** 
   5203  GOL          12875 ****               0 ****  **** 
   5204  GOL          12876 ****               0 ****  **** 
   5205  GOL          12877 ****               0 ****  **** 
   5206  GOL          12878 ****               0 ****  **** 
   5207  GOL          12879 ****               0 ****  **** 
   5208  GOL          12880 ****               0 ****  **** 
   5209  GOL          12881 ****               0 ****  **** 
   5210  GOL          12882 ****               0 ****  **** 
   5211  GOL          12883 ****               0 ****  **** 
   5212  GOL          12884 ****               0 ****  **** 
   5213  GOL          12885 ****               0 ****  **** 
   5214  GOL          12886 ****               0 ****  **** 
   5215  GOL          12887 ****               0 ****  **** 
   5216  GOL          12888 ****               0 ****  **** 
   5217  GOL          12889 ****               0 ****  **** 
   5218  GOL          12890 ****               0 ****  **** 
   5219  GOL          12891 ****               0 ****  **** 
   5220  GOL          12892 ****               0 ****  **** 
   5221  GOL          12893 ****               0 ****  **** 
   5222  GOL          12894 ****               0 ****  **** 
   5223  GOL          12895 ****               0 ****  **** 
   5224  GOL          12896 ****               0 ****  **** 
   5225  GOL          12897 ****               0 ****  **** 
   5226  GOL          12898 ****               0 ****  **** 
   5227  GOL          12899 ****               0 ****  **** 
   5228  GOL          12900 ****               0 ****  **** 
   5229  GOL          12901 ****               0 ****  **** 
   5230  GOL          12902 ****               0 ****  **** 
   5231  GOL          12903 ****               0 ****  **** 
   5232  GOL          12904 ****               0 ****  **** 
   5233  GOL          12905 ****               0 ****  **** 
   5234  GOL          12906 ****               0 ****  **** 
   5235  GOL          12907 ****               0 ****  **** 
   5236  GOL          12908 ****               0 ****  **** 
   5237  GOL          12909 ****               0 ****  **** 
   5238  GOL          12910 ****               0 ****  **** 
   5239  GOL          12911 ****               0 ****  **** 
   5240  GOL          12912 ****               0 ****  **** 
   5241  GOL          12913 ****               0 ****  **** 
   5242  GOL          12914 ****               0 ****  **** 
   5243  GOL          12915 ****               0 ****  **** 
   5244  GOL          12916 ****               0 ****  **** 
   5245  GOL          12917 ****               0 ****  **** 
   5246  GOL          12918 ****               0 ****  **** 
   5247  GOL          12919 ****               0 ****  **** 
   5248  GOL          12920 ****               0 ****  **** 
   5249  GOL          12921 ****               0 ****  **** 
   5250  GOL          12922 ****               0 ****  **** 
   5251  GOL          12923 ****               0 ****  **** 
   5252  GOL          12924 ****               0 ****  **** 
   5253  GOL          12925 ****               0 ****  **** 
   5254  GOL          12926 ****               0 ****  **** 
   5255  GOL          12927 ****               0 ****  **** 
   5256  GOL          12928 ****               0 ****  **** 
   5257  GOL          12929 ****               0 ****  **** 
   5258  GOL          12930 ****               0 ****  **** 
   5259  GOL          12931 ****               0 ****  **** 
   5260  GOL          12932 ****               0 ****  **** 
   5261  GOL          12933 ****               0 ****  **** 
   5262  GOL          12934 ****               0 ****  **** 
   5263  GOL          12935 ****               0 ****  **** 
   5264  GOL          12936 ****               0 ****  **** 
   5265  GOL          12937 ****               0 ****  **** 
   5266  GOL          12938 ****               0 ****  **** 
   5267  GOL          12939 ****               0 ****  **** 
   5268  GOL          12940 ****               0 ****  **** 
   5269  GOL          12941 ****               0 ****  **** 
   5270  GOL          12942 ****               0 ****  **** 
   5271  GOL          12943 ****               0 ****  **** 
   5272  GOL          12944 ****               0 ****  **** 
   5273  GOL          12945 ****               0 ****  **** 
   5274  GOL          12946 ****               0 ****  **** 
   5275  GOL          12947 ****               0 ****  **** 
   5276  GOL          12948 ****               0 ****  **** 
   5277  GOL          12949 ****               0 ****  **** 
   5278  GOL          12950 ****               0 ****  **** 
   5279  GOL          12951 ****               0 ****  **** 
   5280  GOL          12952 ****               0 ****  **** 
   5281  GOL          12953 ****               0 ****  **** 
   5282  GOL          12954 ****               0 ****  **** 
   5283  GOL          12955 ****               0 ****  **** 
   5284  GOL          12956 ****               0 ****  **** 
   5285  GOL          12957 ****               0 ****  **** 
   5286  GOL          12958 ****               0 ****  **** 
   5287  GOL          12959 ****               0 ****  **** 
   5288  GOL          12960 ****               0 ****  **** 
   5289  GOL          12961 ****               0 ****  **** 
   5290  GOL          12962 ****               0 ****  **** 
   5291  GOL          12963 ****               0 ****  **** 
   5292  GOL          12964 ****               0 ****  **** 
   5293  GOL          12965 ****               0 ****  **** 
   5294  GOL          12966 ****               0 ****  **** 
   5295  GOL          12967 ****               0 ****  **** 
   5296  GOL          12968 ****               0 ****  **** 
   5297  GOL          12969 ****               0 ****  **** 
   5298  GOL          12970 ****               0 ****  **** 
   5299  GOL          12971 ****               0 ****  **** 
   5300  GOL          12972 ****               0 ****  **** 
   5301  GOL          12973 ****               0 ****  **** 
   5302  GOL          12974 ****               0 ****  **** 
   5303  GOL          12975 ****               0 ****  **** 
   5304  GOL          12976 ****               0 ****  **** 
   5305  GOL          12977 ****               0 ****  **** 
   5306  GOL          12978 ****               0 ****  **** 
   5307  GOL          12979 ****               0 ****  **** 
   5308  GOL          12980 ****               0 ****  **** 
   5309  GOL          12981 ****               0 ****  **** 
   5310  GOL          12982 ****               0 ****  **** 
   5311  GOL          12983 ****               0 ****  **** 
   5312  GOL          12984 ****               0 ****  **** 
   5313  GOL          12985 ****               0 ****  **** 
   5314  GOL          12986 ****               0 ****  **** 
   5315  GOL          12987 ****               0 ****  **** 
   5316  GOL          12988 ****               0 ****  **** 
   5317  GOL          12989 ****               0 ****  **** 
   5318  GOL          12990 ****               0 ****  **** 
   5319  GOL          12991 ****               0 ****  **** 
   5320  GOL          12992 ****               0 ****  **** 
   5321  GOL          12993 ****               0 ****  **** 
   5322  GOL          12994 ****               0 ****  **** 
   5323  GOL          12995 ****               0 ****  **** 
   5324  GOL          12996 ****               0 ****  **** 
   5325  GOL          12997 ****               0 ****  **** 
   5326  GOL          12998 ****               0 ****  **** 
   5327  GOL          12999 ****               0 ****  **** 
   5328  GOL          13000 ****               0 ****  **** 
   5329  GOL          13001 ****               0 ****  **** 
   5330  GOL          13002 ****               0 ****  **** 
   5331  GOL          13003 ****               0 ****  **** 
   5332  GOL          13004 ****               0 ****  **** 
   5333  GOL          13005 ****               0 ****  **** 
   5334  GOL          13006 ****               0 ****  **** 
   5335  GOL          13007 ****               0 ****  **** 
   5336  GOL          13008 ****               0 ****  **** 
   5337  GOL          13009 ****               0 ****  **** 
   5338  GOL          13010 ****               0 ****  **** 
   5339  GOL          13011 ****               0 ****  **** 
   5340  GOL          13012 ****               0 ****  **** 
   5341  GOL          13013 ****               0 ****  **** 
   5342  GOL          13014 ****               0 ****  **** 
   5343  GOL          13015 ****               0 ****  **** 
   5344  GOL          13016 ****               0 ****  **** 
   5345  GOL          13017 ****               0 ****  **** 
   5346  GOL          13018 ****               0 ****  **** 
   5347  GOL          13019 ****               0 ****  **** 
   5348  GOL          13020 ****               0 ****  **** 
   5349  GOL          13021 ****               0 ****  **** 
   5350  GOL          13022 ****               0 ****  **** 
   5351  GOL          13023 ****               0 ****  **** 
   5352  GOL          13024 ****               0 ****  **** 
   5353  GOL          13025 ****               0 ****  **** 
   5354  GOL          13026 ****               0 ****  **** 
   5355  GOL          13027 ****               0 ****  **** 
   5356  GOL          13028 ****               0 ****  **** 
   5357  GOL          13029 ****               0 ****  **** 
   5358  GOL          13030 ****               0 ****  **** 
   5359  GOL          13031 ****               0 ****  **** 
   5360  GOL          13032 ****               0 ****  **** 
   5361  GOL          13033 ****               0 ****  **** 
   5362  GOL          13034 ****               0 ****  **** 
   5363  GOL          13035 ****               0 ****  **** 
   5364  GOL          13036 ****               0 ****  **** 
   5365  GOL          13037 ****               0 ****  **** 
   5366  GOL          13038 ****               0 ****  **** 
   5367  GOL          13039 ****               0 ****  **** 
   5368  GOL          13040 ****               0 ****  **** 
   5369  GOL          13041 ****               0 ****  **** 
   5370  GOL          13042 ****               0 ****  **** 
   5371  GOL          13043 ****               0 ****  **** 
   5372  GOL          13044 ****               0 ****  **** 
   5373  GOL          13045 ****               0 ****  **** 
   5374  GOL          13046 ****               0 ****  **** 
   5375  GOL          13047 ****               0 ****  **** 
   5376  GOL          13048 ****               0 ****  **** 
   5377  GOL          13049 ****               0 ****  **** 
   5378  GOL          13050 ****               0 ****  **** 
   5379  GOL          13051 ****               0 ****  **** 
   5380  GOL          13052 ****               0 ****  **** 
   5381  GOL          13053 ****               0 ****  **** 
   5382  GOL          13054 ****               0 ****  **** 
   5383  GOL          13055 ****               0 ****  **** 
   5384  GOL          13056 ****               0 ****  **** 
   5385  GOL          13057 ****               0 ****  **** 
   5386  GOL          13058 ****               0 ****  **** 
   5387  GOL          13059 ****               0 ****  **** 
   5388  GOL          13060 ****               0 ****  **** 
   5389  GOL          13061 ****               0 ****  **** 
   5390  GOL          13062 ****               0 ****  **** 
   5391  GOL          13063 ****               0 ****  **** 
   5392  GOL          13064 ****               0 ****  **** 
   5393  GOL          13065 ****               0 ****  **** 
   5394  GOL          13066 ****               0 ****  **** 
   5395  GOL          13067 ****               0 ****  **** 
   5396  GOL          13068 ****               0 ****  **** 
   5397  GOL          13069 ****               0 ****  **** 
   5398  GOL          13070 ****               0 ****  **** 
   5399  GOL          13071 ****               0 ****  **** 
   5400  GOL          13072 ****               0 ****  **** 
   5401  GOL          13073 ****               0 ****  **** 
   5402  GOL          13074 ****               0 ****  **** 
   5403  GOL          13075 ****               0 ****  **** 
   5404  GOL          13076 ****               0 ****  **** 
   5405  GOL          13077 ****               0 ****  **** 
   5406  GOL          13078 ****               0 ****  **** 
   5407  GOL          13079 ****               0 ****  **** 
   5408  GOL          13080 ****               0 ****  **** 
   5409  GOL          13081 ****               0 ****  **** 
   5410  GOL          13082 ****               0 ****  **** 
   5411  GOL          13083 ****               0 ****  **** 
   5412  GOL          13084 ****               0 ****  **** 
   5413  GOL          13085 ****               0 ****  **** 
   5414  GOL          13086 ****               0 ****  **** 
   5415  GOL          13087 ****               0 ****  **** 
   5416  GOL          13088 ****               0 ****  **** 
   5417  GOL          13089 ****               0 ****  **** 
   5418  GOL          13090 ****               0 ****  **** 
   5419  GOL          13091 ****               0 ****  **** 
   5420  GOL          13092 ****               0 ****  **** 
   5421  GOL          13093 ****               0 ****  **** 
   5422  GOL          13094 ****               0 ****  **** 
   5423  GOL          13095 ****               0 ****  **** 
   5424  GOL          13096 ****               0 ****  **** 
   5425  GOL          13097 ****               0 ****  **** 
   5426  GOL          13098 ****               0 ****  **** 
   5427  GOL          13099 ****               0 ****  **** 
   5428  GOL          13100 ****               0 ****  **** 
   5429  GOL          13101 ****               0 ****  **** 
   5430  GOL          13102 ****               0 ****  **** 
   5431  GOL          13103 ****               0 ****  **** 
   5432  GOL          13104 ****               0 ****  **** 
   5433  GOL          13105 ****               0 ****  **** 
   5434  GOL          13106 ****               0 ****  **** 
   5435  GOL          13107 ****               0 ****  **** 
   5436  GOL          13108 ****               0 ****  **** 
   5437  GOL          13109 ****               0 ****  **** 
   5438  GOL          13110 ****               0 ****  **** 
   5439  GOL          13111 ****               0 ****  **** 
   5440  GOL          13112 ****               0 ****  **** 
   5441  GOL          13113 ****               0 ****  **** 
   5442  GOL          13114 ****               0 ****  **** 
   5443  GOL          13115 ****               0 ****  **** 
   5444  GOL          13116 ****               0 ****  **** 
   5445  GOL          13117 ****               0 ****  **** 
   5446  GOL          13118 ****               0 ****  **** 
   5447  GOL          13119 ****               0 ****  **** 
   5448  GOL          13120 ****               0 ****  **** 
   5449  GOL          13121 ****               0 ****  **** 
   5450  GOL          13122 ****               0 ****  **** 
   5451  GOL          13123 ****               0 ****  **** 
   5452  GOL          13124 ****               0 ****  **** 
   5453  GOL          13125 ****               0 ****  **** 
   5454  GOL          13126 ****               0 ****  **** 
   5455  GOL          13127 ****               0 ****  **** 
   5456  GOL          13128 ****               0 ****  **** 
   5457  GOL          13129 ****               0 ****  **** 
   5458  GOL          13130 ****               0 ****  **** 
   5459  GOL          13131 ****               0 ****  **** 
   5460  GOL          13132 ****               0 ****  **** 
   5461  GOL          13133 ****               0 ****  **** 
   5462  GOL          13134 ****               0 ****  **** 
   5463  GOL          13135 ****               0 ****  **** 
   5464  GOL          13136 ****               0 ****  **** 
   5465  GOL          13137 ****               0 ****  **** 
   5466  GOL          13138 ****               0 ****  **** 
   5467  GOL          13139 ****               0 ****  **** 
   5468  GOL          13140 ****               0 ****  **** 
   5469  GOL          13141 ****               0 ****  **** 
   5470  GOL          13142 ****               0 ****  **** 
   5471  GOL          13143 ****               0 ****  **** 
   5472  GOL          13144 ****               0 ****  **** 
   5473  GOL          13145 ****               0 ****  **** 
   5474  GOL          13146 ****               0 ****  **** 
   5475  GOL          13147 ****               0 ****  **** 
   5476  GOL          13148 ****               0 ****  **** 
   5477  GOL          13149 ****               0 ****  **** 
   5478  GOL          13150 ****               0 ****  **** 
   5479  GOL          13151 ****               0 ****  **** 
   5480  GOL          13152 ****               0 ****  **** 
   5481  GOL          13153 ****               0 ****  **** 
   5482  GOL          13154 ****               0 ****  **** 
   5483  GOL          13155 ****               0 ****  **** 
   5484  GOL          13156 ****               0 ****  **** 
   5485  GOL          13157 ****               0 ****  **** 
   5486  GOL          13158 ****               0 ****  **** 
   5487  GOL          13159 ****               0 ****  **** 
   5488  GOL          13160 ****               0 ****  **** 
   5489  GOL          13161 ****               0 ****  **** 
   5490  GOL          13162 ****               0 ****  **** 
   5491  GOL          13163 ****               0 ****  **** 
   5492  GOL          13164 ****               0 ****  **** 
   5493  GOL          13165 ****               0 ****  **** 
   5494  GOL          13166 ****               0 ****  **** 
   5495  GOL          13167 ****               0 ****  **** 
   5496  GOL          13168 ****               0 ****  **** 
   5497  GOL          13169 ****               0 ****  **** 
   5498  GOL          13170 ****               0 ****  **** 
   5499  GOL          13171 ****               0 ****  **** 
   5500  GOL          13172 ****               0 ****  **** 
   5501  GOL          13173 ****               0 ****  **** 
   5502  GOL          13174 ****               0 ****  **** 
   5503  GOL          13175 ****               0 ****  **** 
   5504  GOL          13176 ****               0 ****  **** 
   5505  GOL          13177 ****               0 ****  **** 
   5506  GOL          13178 ****               0 ****  **** 
   5507  GOL          13179 ****               0 ****  **** 
   5508  GOL          13180 ****               0 ****  **** 
   5509  GOL          13181 ****               0 ****  **** 
   5510  GOL          13182 ****               0 ****  **** 
   5511  GOL          13183 ****               0 ****  **** 
   5512  GOL          13184 ****               0 ****  **** 
   5513  GOL          13185 ****               0 ****  **** 
   5514  GOL          13186 ****               0 ****  **** 
   5515  GOL          13187 ****               0 ****  **** 
   5516  GOL          13188 ****               0 ****  **** 
   5517  GOL          13189 ****               0 ****  **** 
   5518  GOL          13190 ****               0 ****  **** 
   5519  GOL          13191 ****               0 ****  **** 
   5520  GOL          13192 ****               0 ****  **** 
   5521  GOL          13193 ****               0 ****  **** 
   5522  GOL          13194 ****               0 ****  **** 
   5523  GOL          13195 ****               0 ****  **** 
   5524  GOL          13196 ****               0 ****  **** 
   5525  GOL          13197 ****               0 ****  **** 
   5526  GOL          13198 ****               0 ****  **** 
   5527  GOL          13199 ****               0 ****  **** 
   5528  GOL          13200 ****               0 ****  **** 
   5529  GOL          13201 ****               0 ****  **** 
   5530  GOL          13202 ****               0 ****  **** 
   5531  GOL          13203 ****               0 ****  **** 
   5532  GOL          13204 ****               0 ****  **** 
   5533  GOL          13205 ****               0 ****  **** 
   5534  GOL          13206 ****               0 ****  **** 
   5535  GOL          13207 ****               0 ****  **** 
   5536  GOL          13208 ****               0 ****  **** 
   5537  GOL          13209 ****               0 ****  **** 
   5538  GOL          13210 ****               0 ****  **** 
   5539  GOL          13211 ****               0 ****  **** 
   5540  GOL          13212 ****               0 ****  **** 
   5541  GOL          13213 ****               0 ****  **** 
   5542  GOL          13214 ****               0 ****  **** 
   5543  GOL          13215 ****               0 ****  **** 
   5544  GOL          13216 ****               0 ****  **** 
   5545  GOL          13217 ****               0 ****  **** 
   5546  GOL          13218 ****               0 ****  **** 
   5547  GOL          13219 ****               0 ****  **** 
   5548  GOL          13220 ****               0 ****  **** 
   5549  GOL          13221 ****               0 ****  **** 
   5550  GOL          13222 ****               0 ****  **** 
   5551  GOL          13223 ****               0 ****  **** 
   5552  GOL          13224 ****               0 ****  **** 
   5553  GOL          13225 ****               0 ****  **** 
   5554  GOL          13226 ****               0 ****  **** 
   5555  GOL          13227 ****               0 ****  **** 
   5556  GOL          13228 ****               0 ****  **** 
   5557  GOL          13229 ****               0 ****  **** 
   5558  GOL          13230 ****               0 ****  **** 
   5559  GOL          13231 ****               0 ****  **** 
   5560  GOL          13232 ****               0 ****  **** 
   5561  GOL          13233 ****               0 ****  **** 
   5562  GOL          13234 ****               0 ****  **** 
   5563  GOL          13235 ****               0 ****  **** 
   5564  GOL          13236 ****               0 ****  **** 
   5565  GOL          13237 ****               0 ****  **** 
   5566  GOL          13238 ****               0 ****  **** 
   5567  GOL          13239 ****               0 ****  **** 
   5568  GOL          13240 ****               0 ****  **** 
   5569  GOL          13241 ****               0 ****  **** 
   5570  GOL          13242 ****               0 ****  **** 
   5571  GOL          13243 ****               0 ****  **** 
   5572  GOL          13244 ****               0 ****  **** 
   5573  GOL          13245 ****               0 ****  **** 
   5574  GOL          13246 ****               0 ****  **** 
   5575  GOL          13247 ****               0 ****  **** 
   5576  GOL          13248 ****               0 ****  **** 
   5577  GOL          13249 ****               0 ****  **** 
   5578  GOL          13250 ****               0 ****  **** 
   5579  GOL          13251 ****               0 ****  **** 
   5580  GOL          13252 ****               0 ****  **** 
   5581  GOL          13253 ****               0 ****  **** 
   5582  GOL          13254 ****               0 ****  **** 
   5583  GOL          13255 ****               0 ****  **** 
   5584  GOL          13256 ****               0 ****  **** 
   5585  GOL          13257 ****               0 ****  **** 
   5586  GOL          13258 ****               0 ****  **** 
   5587  GOL          13259 ****               0 ****  **** 
   5588  GOL          13260 ****               0 ****  **** 
   5589  GOL          13261 ****               0 ****  **** 
   5590  GOL          13262 ****               0 ****  **** 
   5591  GOL          13263 ****               0 ****  **** 
   5592  GOL          13264 ****               0 ****  **** 
   5593  GOL          13265 ****               0 ****  **** 
   5594  GOL          13266 ****               0 ****  **** 
   5595  GOL          13267 ****               0 ****  **** 
   5596  GOL          13268 ****               0 ****  **** 
   5597  GOL          13269 ****               0 ****  **** 
   5598  GOL          13270 ****               0 ****  **** 
   5599  GOL          13271 ****               0 ****  **** 
   5600  GOL          13272 ****               0 ****  **** 
   5601  GOL          13273 ****               0 ****  **** 
   5602  GOL          13274 ****               0 ****  **** 
   5603  GOL          13275 ****               0 ****  **** 
   5604  GOL          13276 ****               0 ****  **** 
   5605  GOL          13277 ****               0 ****  **** 
   5606  GOL          13278 ****               0 ****  **** 
   5607  GOL          13279 ****               0 ****  **** 
   5608  GOL          13280 ****               0 ****  **** 
   5609  GOL          13281 ****               0 ****  **** 
   5610  GOL          13282 ****               0 ****  **** 
   5611  GOL          13283 ****               0 ****  **** 
   5612  GOL          13284 ****               0 ****  **** 
   5613  GOL          13285 ****               0 ****  **** 
   5614  GOL          13286 ****               0 ****  **** 
   5615  GOL          13287 ****               0 ****  **** 
   5616  GOL          13288 ****               0 ****  **** 
   5617  GOL          13289 ****               0 ****  **** 
   5618  GOL          13290 ****               0 ****  **** 
   5619  GOL          13291 ****               0 ****  **** 
   5620  GOL          13292 ****               0 ****  **** 
   5621  GOL          13293 ****               0 ****  **** 
   5622  GOL          13294 ****               0 ****  **** 
   5623  GOL          13295 ****               0 ****  **** 
   5624  GOL          13296 ****               0 ****  **** 
   5625  GOL          13297 ****               0 ****  **** 
   5626  GOL          13298 ****               0 ****  **** 
   5627  GOL          13299 ****               0 ****  **** 
   5628  GOL          13300 ****               0 ****  **** 
   5629  GOL          13301 ****               0 ****  **** 
   5630  GOL          13302 ****               0 ****  **** 
   5631  GOL          13303 ****               0 ****  **** 
   5632  GOL          13304 ****               0 ****  **** 
   5633  GOL          13305 ****               0 ****  **** 
   5634  GOL          13306 ****               0 ****  **** 
   5635  GOL          13307 ****               0 ****  **** 
   5636  GOL          13308 ****               0 ****  **** 
   5637  GOL          13309 ****               0 ****  **** 
   5638  GOL          13310 ****               0 ****  **** 
   5639  GOL          13311 ****               0 ****  **** 
   5640  GOL          13312 ****               0 ****  **** 
   5641  GOL          13313 ****               0 ****  **** 
   5642  GOL          13314 ****               0 ****  **** 
   5643  GOL          13315 ****               0 ****  **** 
   5644  GOL          13316 ****               0 ****  **** 
   5645  GOL          13317 ****               0 ****  **** 
   5646  GOL          13318 ****               0 ****  **** 
   5647  GOL          13319 ****               0 ****  **** 
   5648  GOL          13320 ****               0 ****  **** 
   5649  GOL          13321 ****               0 ****  **** 
   5650  GOL          13322 ****               0 ****  **** 
   5651  GOL          13323 ****               0 ****  **** 
   5652  GOL          13324 ****               0 ****  **** 
   5653  GOL          13325 ****               0 ****  **** 
   5654  GOL          13326 ****               0 ****  **** 
   5655  GOL          13327 ****               0 ****  **** 
   5656  GOL          13328 ****               0 ****  **** 
   5657  GOL          13329 ****               0 ****  **** 
   5658  GOL          13330 ****               0 ****  **** 
   5659  GOL          13331 ****               0 ****  **** 
   5660  GOL          13332 ****               0 ****  **** 
   5661  GOL          13333 ****               0 ****  **** 
   5662  GOL          13334 ****               0 ****  **** 
   5663  GOL          13335 ****               0 ****  **** 
   5664  GOL          13336 ****               0 ****  **** 
   5665  GOL          13337 ****               0 ****  **** 
   5666  GOL          13338 ****               0 ****  **** 
   5667  GOL          13339 ****               0 ****  **** 
   5668  GOL          13340 ****               0 ****  **** 
   5669  GOL          13341 ****               0 ****  **** 
   5670  GOL          13342 ****               0 ****  **** 
   5671  GOL          13343 ****               0 ****  **** 
   5672  GOL          13344 ****               0 ****  **** 
   5673  GOL          13345 ****               0 ****  **** 
   5674  GOL          13346 ****               0 ****  **** 
   5675  GOL          13347 ****               0 ****  **** 
   5676  GOL          13348 ****               0 ****  **** 
   5677  GOL          13349 ****               0 ****  **** 
   5678  GOL          13350 ****               0 ****  **** 
   5679  GOL          13351 ****               0 ****  **** 
   5680  GOL          13352 ****               0 ****  **** 
   5681  GOL          13353 ****               0 ****  **** 
   5682  GOL          13354 ****               0 ****  **** 
   5683  GOL          13355 ****               0 ****  **** 
   5684  GOL          13356 ****               0 ****  **** 
   5685  GOL          13357 ****               0 ****  **** 
   5686  GOL          13358 ****               0 ****  **** 
   5687  GOL          13359 ****               0 ****  **** 
   5688  GOL          13360 ****               0 ****  **** 
   5689  GOL          13361 ****               0 ****  **** 
   5690  GOL          13362 ****               0 ****  **** 
   5691  GOL          13363 ****               0 ****  **** 
   5692  GOL          13364 ****               0 ****  **** 
   5693  GOL          13365 ****               0 ****  **** 
   5694  GOL          13366 ****               0 ****  **** 
   5695  GOL          13367 ****               0 ****  **** 
   5696  GOL          13368 ****               0 ****  **** 
   5697  GOL          13369 ****               0 ****  **** 
   5698  GOL          13370 ****               0 ****  **** 
   5699  GOL          13371 ****               0 ****  **** 
   5700  GOL          13372 ****               0 ****  **** 
   5701  GOL          13373 ****               0 ****  **** 
   5702  GOL          13374 ****               0 ****  **** 
   5703  GOL          13375 ****               0 ****  **** 
   5704  GOL          13376 ****               0 ****  **** 
   5705  GOL          13377 ****               0 ****  **** 
   5706  GOL          13378 ****               0 ****  **** 
   5707  GOL          13379 ****               0 ****  **** 
   5708  GOL          13380 ****               0 ****  **** 
   5709  GOL          13381 ****               0 ****  **** 
   5710  GOL          13382 ****               0 ****  **** 
   5711  GOL          13383 ****               0 ****  **** 
   5712  GOL          13384 ****               0 ****  **** 
   5713  GOL          13385 ****               0 ****  **** 
   5714  GOL          13386 ****               0 ****  **** 
   5715  GOL          13387 ****               0 ****  **** 
   5716  GOL          13388 ****               0 ****  **** 
   5717  GOL          13389 ****               0 ****  **** 
   5718  GOL          13390 ****               0 ****  **** 
   5719  GOL          13391 ****               0 ****  **** 
   5720  GOL          13392 ****               0 ****  **** 
   5721  GOL          13393 ****               0 ****  **** 
   5722  GOL          13394 ****               0 ****  **** 
   5723  GOL          13395 ****               0 ****  **** 
   5724  GOL          13396 ****               0 ****  **** 
   5725  GOL          13397 ****               0 ****  **** 
   5726  GOL          13398 ****               0 ****  **** 
   5727  GOL          13399 ****               0 ****  **** 
   5728  GOL          13400 ****               0 ****  **** 
   5729  GOL          13401 ****               0 ****  **** 
   5730  GOL          13402 ****               0 ****  **** 
   5731  GOL          13403 ****               0 ****  **** 
   5732  GOL          13404 ****               0 ****  **** 
   5733  GOL          13405 ****               0 ****  **** 
   5734  GOL          13406 ****               0 ****  **** 
   5735  GOL          13407 ****               0 ****  **** 
   5736  GOL          13408 ****               0 ****  **** 
   5737  GOL          13409 ****               0 ****  **** 
   5738  GOL          13410 ****               0 ****  **** 
   5739  GOL          13411 ****               0 ****  **** 
   5740  GOL          13412 ****               0 ****  **** 
   5741  GOL          13413 ****               0 ****  **** 
   5742  GOL          13414 ****               0 ****  **** 
   5743  GOL          13415 ****               0 ****  **** 
   5744  GOL          13416 ****               0 ****  **** 
   5745  GOL          13417 ****               0 ****  **** 
   5746  GOL          13418 ****               0 ****  **** 
   5747  GOL          13419 ****               0 ****  **** 
   5748  GOL          13420 ****               0 ****  **** 
   5749  GOL          13421 ****               0 ****  **** 
   5750  GOL          13422 ****               0 ****  **** 
   5751  GOL          13423 ****               0 ****  **** 
   5752  GOL          13424 ****               0 ****  **** 
   5753  GOL          13425 ****               0 ****  **** 
   5754  GOL          13426 ****               0 ****  **** 
   5755  GOL          13427 ****               0 ****  **** 
   5756  GOL          13428 ****               0 ****  **** 
   5757  GOL          13429 ****               0 ****  **** 
   5758  GOL          13430 ****               0 ****  **** 
   5759  GOL          13431 ****               0 ****  **** 
   5760  GOL          13432 ****               0 ****  **** 
   5761  GOL          13433 ****               0 ****  **** 
   5762  GOL          13434 ****               0 ****  **** 
   5763  GOL          13435 ****               0 ****  **** 
   5764  GOL          13436 ****               0 ****  **** 
   5765  GOL          13437 ****               0 ****  **** 
   5766  GOL          13438 ****               0 ****  **** 
   5767  GOL          13439 ****               0 ****  **** 
   5768  GOL          13440 ****               0 ****  **** 
   5769  GOL          13441 ****               0 ****  **** 
   5770  GOL          13442 ****               0 ****  **** 
   5771  GOL          13443 ****               0 ****  **** 
   5772  GOL          13444 ****               0 ****  **** 
   5773  GOL          13445 ****               0 ****  **** 
   5774  GOL          13446 ****               0 ****  **** 
   5775  GOL          13447 ****               0 ****  **** 
   5776  GOL          13448 ****               0 ****  **** 
   5777  GOL          13449 ****               0 ****  **** 
   5778  GOL          13450 ****               0 ****  **** 
   5779  GOL          13451 ****               0 ****  **** 
   5780  GOL          13452 ****               0 ****  **** 
   5781  GOL          13453 ****               0 ****  **** 
   5782  GOL          13454 ****               0 ****  **** 
   5783  GOL          13455 ****               0 ****  **** 
   5784  GOL          13456 ****               0 ****  **** 
   5785  GOL          13457 ****               0 ****  **** 
   5786  GOL          13458 ****               0 ****  **** 
   5787  GOL          13459 ****               0 ****  **** 
   5788  GOL          13460 ****               0 ****  **** 
   5789  GOL          13461 ****               0 ****  **** 
   5790  GOL          13462 ****               0 ****  **** 
   5791  GOL          13463 ****               0 ****  **** 
   5792  GOL          13464 ****               0 ****  **** 
   5793  GOL          13465 ****               0 ****  **** 
   5794  GOL          13466 ****               0 ****  **** 
   5795  GOL          13467 ****               0 ****  **** 
   5796  GOL          13468 ****               0 ****  **** 
   5797  GOL          13469 ****               0 ****  **** 
   5798  GOL          13470 ****               0 ****  **** 
   5799  GOL          13471 ****               0 ****  **** 
   5800  GOL          13472 ****               0 ****  **** 
   5801  GOL          13473 ****               0 ****  **** 
   5802  GOL          13474 ****               0 ****  **** 
   5803  GOL          13475 ****               0 ****  **** 
   5804  GOL          13476 ****               0 ****  **** 
   5805  GOL          13477 ****               0 ****  **** 
   5806  GOL          13478 ****               0 ****  **** 
   5807  GOL          13479 ****               0 ****  **** 
   5808  GOL          13480 ****               0 ****  **** 
   5809  GOL          13481 ****               0 ****  **** 
   5810  GOL          13482 ****               0 ****  **** 
   5811  GOL          13483 ****               0 ****  **** 
   5812  GOL          13484 ****               0 ****  **** 
   5813  GOL          13485 ****               0 ****  **** 
   5814  GOL          13486 ****               0 ****  **** 
   5815  GOL          13487 ****               0 ****  **** 
   5816  GOL          13488 ****               0 ****  **** 
   5817  GOL          13489 ****               0 ****  **** 
   5818  GOL          13490 ****               0 ****  **** 
   5819  GOL          13491 ****               0 ****  **** 
   5820  GOL          13492 ****               0 ****  **** 
   5821  GOL          13493 ****               0 ****  **** 
   5822  GOL          13494 ****               0 ****  **** 
   5823  GOL          13495 ****               0 ****  **** 
   5824  GOL          13496 ****               0 ****  **** 
   5825  GOL          13497 ****               0 ****  **** 
   5826  GOL          13498 ****               0 ****  **** 
   5827  GOL          13499 ****               0 ****  **** 
   5828  GOL          13500 ****               0 ****  **** 
   5829  GOL          13501 ****               0 ****  **** 
   5830  GOL          13502 ****               0 ****  **** 
   5831  GOL          13503 ****               0 ****  **** 
   5832  GOL          13504 ****               0 ****  **** 
   5833  GOL          13505 ****               0 ****  **** 
   5834  GOL          13506 ****               0 ****  **** 
   5835  GOL          13507 ****               0 ****  **** 
   5836  GOL          13508 ****               0 ****  **** 
   5837  GOL          13509 ****               0 ****  **** 
   5838  GOL          13510 ****               0 ****  **** 
   5839  GOL          13511 ****               0 ****  **** 
   5840  GOL          13512 ****               0 ****  **** 
   5841  GOL          13513 ****               0 ****  **** 
   5842  GOL          13514 ****               0 ****  **** 
   5843  GOL          13515 ****               0 ****  **** 
   5844  GOL          13516 ****               0 ****  **** 
   5845  GOL          13517 ****               0 ****  **** 
   5846  GOL          13518 ****               0 ****  **** 
   5847  GOL          13519 ****               0 ****  **** 
   5848  GOL          13520 ****               0 ****  **** 
   5849  GOL          13521 ****               0 ****  **** 
   5850  GOL          13522 ****               0 ****  **** 
   5851  GOL          13523 ****               0 ****  **** 
   5852  GOL          13524 ****               0 ****  **** 
   5853  GOL          13525 ****               0 ****  **** 
   5854  GOL          13526 ****               0 ****  **** 
   5855  GOL          13527 ****               0 ****  **** 
   5856  GOL          13528 ****               0 ****  **** 
   5857  GOL          13529 ****               0 ****  **** 
   5858  GOL          13530 ****               0 ****  **** 
   5859  GOL          13531 ****               0 ****  **** 
   5860  GOL          13532 ****               0 ****  **** 
   5861  GOL          13533 ****               0 ****  **** 
   5862  GOL          13534 ****               0 ****  **** 
   5863  GOL          13535 ****               0 ****  **** 
   5864  GOL          13536 ****               0 ****  **** 
   5865  GOL          13537 ****               0 ****  **** 
   5866  GOL          13538 ****               0 ****  **** 
   5867  GOL          13539 ****               0 ****  **** 
   5868  GOL          13540 ****               0 ****  **** 
   5869  GOL          13541 ****               0 ****  **** 
   5870  GOL          13542 ****               0 ****  **** 
   5871  GOL          13543 ****               0 ****  **** 
   5872  GOL          13544 ****               0 ****  **** 
   5873  GOL          13545 ****               0 ****  **** 
   5874  GOL          13546 ****               0 ****  **** 
   5875  GOL          13547 ****               0 ****  **** 
   5876  GOL          13548 ****               0 ****  **** 
   5877  GOL          13549 ****               0 ****  **** 
   5878  GOL          13550 ****               0 ****  **** 
   5879  GOL          13551 ****               0 ****  **** 
   5880  GOL          13552 ****               0 ****  **** 
   5881  GOL          13553 ****               0 ****  **** 
   5882  GOL          13554 ****               0 ****  **** 
   5883  GOL          13555 ****               0 ****  **** 
   5884  GOL          13556 ****               0 ****  **** 
   5885  GOL          13557 ****               0 ****  **** 
   5886  GOL          13558 ****               0 ****  **** 
   5887  GOL          13559 ****               0 ****  **** 
   5888  GOL          13560 ****               0 ****  **** 
   5889  GOL          13561 ****               0 ****  **** 
   5890  GOL          13562 ****               0 ****  **** 
   5891  GOL          13563 ****               0 ****  **** 
   5892  GOL          13564 ****               0 ****  **** 
   5893  GOL          13565 ****               0 ****  **** 
   5894  GOL          13566 ****               0 ****  **** 
   5895  GOL          13567 ****               0 ****  **** 
   5896  GOL          13568 ****               0 ****  **** 
   5897  GOL          13569 ****               0 ****  **** 
   5898  GOL          13570 ****               0 ****  **** 
   5899  GOL          13571 ****               0 ****  **** 
   5900  GOL          13572 ****               0 ****  **** 
   5901  GOL          13573 ****               0 ****  **** 
   5902  GOL          13574 ****               0 ****  **** 
   5903  GOL          13575 ****               0 ****  **** 
   5904  GOL          13576 ****               0 ****  **** 
   5905  GOL          13577 ****               0 ****  **** 
   5906  GOL          13578 ****               0 ****  **** 
   5907  GOL          13579 ****               0 ****  **** 
   5908  GOL          13580 ****               0 ****  **** 
   5909  GOL          13581 ****               0 ****  **** 
   5910  GOL          13582 ****               0 ****  **** 
   5911  GOL          13583 ****               0 ****  **** 
   5912  GOL          13584 ****               0 ****  **** 
   5913  GOL          13585 ****               0 ****  **** 
   5914  GOL          13586 ****               0 ****  **** 
   5915  GOL          13587 ****               0 ****  **** 
   5916  GOL          13588 ****               0 ****  **** 
   5917  GOL          13589 ****               0 ****  **** 
   5918  GOL          13590 ****               0 ****  **** 
   5919  GOL          13591 ****               0 ****  **** 
   5920  GOL          13592 ****               0 ****  **** 
   5921  GOL          13593 ****               0 ****  **** 
   5922  GOL          13594 ****               0 ****  **** 
   5923  GOL          13595 ****               0 ****  **** 
   5924  GOL          13596 ****               0 ****  **** 
   5925  GOL          13597 ****               0 ****  **** 
   5926  GOL          13598 ****               0 ****  **** 
   5927  GOL          13599 ****               0 ****  **** 
   5928  GOL          13600 ****               0 ****  **** 
   5929  GOL          13601 ****               0 ****  **** 
   5930  GOL          13602 ****               0 ****  **** 
   5931  GOL          13603 ****               0 ****  **** 
   5932  GOL          13604 ****               0 ****  **** 
   5933  GOL          13605 ****               0 ****  **** 
   5934  GOL          13606 ****               0 ****  **** 
   5935  GOL          13607 ****               0 ****  **** 
   5936  GOL          13608 ****               0 ****  **** 
   5937  GOL          13609 ****               0 ****  **** 
   5938  GOL          13610 ****               0 ****  **** 
   5939  GOL          13611 ****               0 ****  **** 
   5940  GOL          13612 ****               0 ****  **** 
   5941  GOL          13613 ****               0 ****  **** 
   5942  GOL          13614 ****               0 ****  **** 
   5943  GOL          13615 ****               0 ****  **** 
   5944  GOL          13616 ****               0 ****  **** 
   5945  GOL          13617 ****               0 ****  **** 
   5946  GOL          13618 ****               0 ****  **** 
   5947  GOL          13619 ****               0 ****  **** 
   5948  GOL          13620 ****               0 ****  **** 
   5949  GOL          13621 ****               0 ****  **** 
   5950  GOL          13622 ****               0 ****  **** 
   5951  GOL          13623 ****               0 ****  **** 
   5952  GOL          13624 ****               0 ****  **** 
   5953  GOL          13625 ****               0 ****  **** 
   5954  GOL          13626 ****               0 ****  **** 
   5955  GOL          13627 ****               0 ****  **** 
   5956  GOL          13628 ****               0 ****  **** 
   5957  GOL          13629 ****               0 ****  **** 
   5958  GOL          13630 ****               0 ****  **** 
   5959  GOL          13631 ****               0 ****  **** 
   5960  GOL          13632 ****               0 ****  **** 
   5961  GOL          13633 ****               0 ****  **** 
   5962  GOL          13634 ****               0 ****  **** 
   5963  GOL          13635 ****               0 ****  **** 
   5964  GOL          13636 ****               0 ****  **** 
   5965  GOL          13637 ****               0 ****  **** 
   5966  GOL          13638 ****               0 ****  **** 
   5967  GOL          13639 ****               0 ****  **** 
   5968  GOL          13640 ****               0 ****  **** 
   5969  GOL          13641 ****               0 ****  **** 
   5970  GOL          13642 ****               0 ****  **** 
   5971  GOL          13643 ****               0 ****  **** 
   5972  GOL          13644 ****               0 ****  **** 
   5973  GOL          13645 ****               0 ****  **** 
   5974  GOL          13646 ****               0 ****  **** 
   5975  GOL          13647 ****               0 ****  **** 
   5976  GOL          13648 ****               0 ****  **** 
   5977  GOL          13649 ****               0 ****  **** 
   5978  GOL          13650 ****               0 ****  **** 
   5979  GOL          13651 ****               0 ****  **** 
   5980  GOL          13652 ****               0 ****  **** 
   5981  GOL          13653 ****               0 ****  **** 
   5982  GOL          13654 ****               0 ****  **** 
   5983  GOL          13655 ****               0 ****  **** 
   5984  GOL          13656 ****               0 ****  **** 
   5985  GOL          13657 ****               0 ****  **** 
   5986  GOL          13658 ****               0 ****  **** 
   5987  GOL          13659 ****               0 ****  **** 
   5988  GOL          13660 ****               0 ****  **** 
   5989  GOL          13661 ****               0 ****  **** 
   5990  GOL          13662 ****               0 ****  **** 
   5991  GOL          13663 ****               0 ****  **** 
   5992  GOL          13664 ****               0 ****  **** 
   5993  GOL          13665 ****               0 ****  **** 
   5994  GOL          13666 ****               0 ****  **** 
   5995  GOL          13667 ****               0 ****  **** 
   5996  GOL          13668 ****               0 ****  **** 
   5997  GOL          13669 ****               0 ****  **** 
   5998  GOL          13670 ****               0 ****  **** 
   5999  GOL          13671 ****               0 ****  **** 
   6000  GOL          13672 ****               0 ****  **** 
   6001  GOL          13673 ****               0 ****  **** 
   6002  GOL          13674 ****               0 ****  **** 
   6003  GOL          13675 ****               0 ****  **** 
   6004  GOL          13676 ****               0 ****  **** 
   6005  GOL          13677 ****               0 ****  **** 
   6006  GOL          13678 ****               0 ****  **** 
   6007  GOL          13679 ****               0 ****  **** 
   6008  GOL          13680 ****               0 ****  **** 
   6009  GOL          13681 ****               0 ****  **** 
   6010  GOL          13682 ****               0 ****  **** 
   6011  GOL          13683 ****               0 ****  **** 
   6012  GOL          13684 ****               0 ****  **** 
   6013  GOL          13685 ****               0 ****  **** 
   6014  GOL          13686 ****               0 ****  **** 
   6015  GOL          13687 ****               0 ****  **** 
   6016  GOL          13688 ****               0 ****  **** 
   6017  GOL          13689 ****               0 ****  **** 
   6018  GOL          13690 ****               0 ****  **** 
   6019  GOL          13691 ****               0 ****  **** 
   6020  GOL          13692 ****               0 ****  **** 
   6021  GOL          13693 ****               0 ****  **** 
   6022  GOL          13694 ****               0 ****  **** 
   6023  GOL          13695 ****               0 ****  **** 
   6024  GOL          13696 ****               0 ****  **** 
   6025  GOL          13697 ****               0 ****  **** 
   6026  GOL          13698 ****               0 ****  **** 
   6027  GOL          13699 ****               0 ****  **** 
   6028  GOL          13700 ****               0 ****  **** 
   6029  GOL          13701 ****               0 ****  **** 
   6030  GOL          13702 ****               0 ****  **** 
   6031  GOL          13703 ****               0 ****  **** 
   6032  GOL          13704 ****               0 ****  **** 
   6033  GOL          13705 ****               0 ****  **** 
   6034  GOL          13706 ****               0 ****  **** 
   6035  GOL          13707 ****               0 ****  **** 
   6036  GOL          13708 ****               0 ****  **** 
   6037  GOL          13709 ****               0 ****  **** 
   6038  GOL          13710 ****               0 ****  **** 
   6039  GOL          13711 ****               0 ****  **** 
   6040  GOL          13712 ****               0 ****  **** 
   6041  GOL          13713 ****               0 ****  **** 
   6042  GOL          13714 ****               0 ****  **** 
   6043  GOL          13715 ****               0 ****  **** 
   6044  GOL          13716 ****               0 ****  **** 
   6045  GOL          13717 ****               0 ****  **** 
   6046  GOL          13718 ****               0 ****  **** 
   6047  GOL          13719 ****               0 ****  **** 
   6048  GOL          13720 ****               0 ****  **** 
   6049  GOL          13721 ****               0 ****  **** 
   6050  GOL          13722 ****               0 ****  **** 
   6051  GOL          13723 ****               0 ****  **** 
   6052  GOL          13724 ****               0 ****  **** 
   6053  GOL          13725 ****               0 ****  **** 
   6054  GOL          13726 ****               0 ****  **** 
   6055  GOL          13727 ****               0 ****  **** 
   6056  GOL          13728 ****               0 ****  **** 
   6057  GOL          13729 ****               0 ****  **** 
   6058  GOL          13730 ****               0 ****  **** 
   6059  GOL          13731 ****               0 ****  **** 
   6060  GOL          13732 ****               0 ****  **** 
   6061  GOL          13733 ****               0 ****  **** 
   6062  GOL          13734 ****               0 ****  **** 
   6063  GOL          13735 ****               0 ****  **** 
   6064  GOL          13736 ****               0 ****  **** 
   6065  GOL          13737 ****               0 ****  **** 
   6066  GOL          13738 ****               0 ****  **** 
   6067  GOL          13739 ****               0 ****  **** 
   6068  GOL          13740 ****               0 ****  **** 
   6069  GOL          13741 ****               0 ****  **** 
   6070  GOL          13742 ****               0 ****  **** 
   6071  GOL          13743 ****               0 ****  **** 
   6072  GOL          13744 ****               0 ****  **** 
   6073  GOL          13745 ****               0 ****  **** 
   6074  GOL          13746 ****               0 ****  **** 
   6075  GOL          13747 ****               0 ****  **** 
   6076  GOL          13748 ****               0 ****  **** 
   6077  GOL          13749 ****               0 ****  **** 
   6078  GOL          13750 ****               0 ****  **** 
   6079  GOL          13751 ****               0 ****  **** 
   6080  GOL          13752 ****               0 ****  **** 
   6081  GOL          13753 ****               0 ****  **** 
   6082  GOL          13754 ****               0 ****  **** 
   6083  GOL          13755 ****               0 ****  **** 
   6084  GOL          13756 ****               0 ****  **** 
   6085  GOL          13757 ****               0 ****  **** 
   6086  GOL          13758 ****               0 ****  **** 
   6087  GOL          13759 ****               0 ****  **** 
   6088  GOL          13760 ****               0 ****  **** 
   6089  GOL          13761 ****               0 ****  **** 
   6090  GOL          13762 ****               0 ****  **** 
   6091  GOL          13763 ****               0 ****  **** 
   6092  GOL          13764 ****               0 ****  **** 
   6093  GOL          13765 ****               0 ****  **** 
   6094  GOL          13766 ****               0 ****  **** 
   6095  GOL          13767 ****               0 ****  **** 
   6096  GOL          13768 ****               0 ****  **** 
   6097  GOL          13769 ****               0 ****  **** 
   6098  GOL          13770 ****               0 ****  **** 
   6099  GOL          13771 ****               0 ****  **** 
   6100  GOL          13772 ****               0 ****  **** 
   6101  GOL          13773 ****               0 ****  **** 
   6102  GOL          13774 ****               0 ****  **** 
   6103  GOL          13775 ****               0 ****  **** 
   6104  GOL          13776 ****               0 ****  **** 
   6105  GOL          13777 ****               0 ****  **** 
   6106  GOL          13778 ****               0 ****  **** 
   6107  GOL          13779 ****               0 ****  **** 
   6108  GOL          13780 ****               0 ****  **** 
   6109  GOL          13781 ****               0 ****  **** 
   6110  GOL          13782 ****               0 ****  **** 
   6111  GOL          13783 ****               0 ****  **** 
   6112  GOL          13784 ****               0 ****  **** 
   6113  GOL          13785 ****               0 ****  **** 
   6114  GOL          13786 ****               0 ****  **** 
   6115  GOL          13787 ****               0 ****  **** 
   6116  GOL          13788 ****               0 ****  **** 
   6117  GOL          13789 ****               0 ****  **** 
   6118  GOL          13790 ****               0 ****  **** 
   6119  GOL          13791 ****               0 ****  **** 
   6120  GOL          13792 ****               0 ****  **** 
   6121  GOL          13793 ****               0 ****  **** 
   6122  GOL          13794 ****               0 ****  **** 
   6123  GOL          13795 ****               0 ****  **** 
   6124  GOL          13796 ****               0 ****  **** 
   6125  GOL          13797 ****               0 ****  **** 
   6126  GOL          13798 ****               0 ****  **** 
   6127  GOL          13799 ****               0 ****  **** 
   6128  GOL          13800 ****               0 ****  **** 
   6129  GOL          13801 ****               0 ****  **** 
   6130  GOL          13802 ****               0 ****  **** 
   6131  GOL          13803 ****               0 ****  **** 
   6132  GOL          13804 ****               0 ****  **** 
   6133  GOL          13805 ****               0 ****  **** 
   6134  GOL          13806 ****               0 ****  **** 
   6135  GOL          13807 ****               0 ****  **** 
   6136  GOL          13808 ****               0 ****  **** 
   6137  GOL          13809 ****               0 ****  **** 
   6138  GOL          13810 ****               0 ****  **** 
   6139  GOL          13811 ****               0 ****  **** 
   6140  GOL          13812 ****               0 ****  **** 
   6141  GOL          13813 ****               0 ****  **** 
   6142  GOL          13814 ****               0 ****  **** 
   6143  GOL          13815 ****               0 ****  **** 
   6144  GOL          13816 ****               0 ****  **** 
   6145  GOL          13817 ****               0 ****  **** 
   6146  GOL          13818 ****               0 ****  **** 
   6147  GOL          13819 ****               0 ****  **** 
   6148  GOL          13820 ****               0 ****  **** 
   6149  GOL          13821 ****               0 ****  **** 
   6150  GOL          13822 ****               0 ****  **** 
   6151  GOL          13823 ****               0 ****  **** 
   6152  GOL          13824 ****               0 ****  **** 
   6153  GOL          13825 ****               0 ****  **** 
   6154  GOL          13826 ****               0 ****  **** 
   6155  GOL          13827 ****               0 ****  **** 
   6156  GOL          13828 ****               0 ****  **** 
   6157  GOL          13829 ****               0 ****  **** 
   6158  GOL          13830 ****               0 ****  **** 
   6159  GOL          13831 ****               0 ****  **** 
   6160  GOL          13832 ****               0 ****  **** 
   6161  GOL          13833 ****               0 ****  **** 
   6162  GOL          13834 ****               0 ****  **** 
   6163  GOL          13835 ****               0 ****  **** 
   6164  GOL          13836 ****               0 ****  **** 
   6165  GOL          13837 ****               0 ****  **** 
   6166  GOL          13838 ****               0 ****  **** 
   6167  GOL          13839 ****               0 ****  **** 
   6168  GOL          13840 ****               0 ****  **** 
   6169  GOL          13841 ****               0 ****  **** 
   6170  GOL          13842 ****               0 ****  **** 
   6171  GOL          13843 ****               0 ****  **** 
   6172  GOL          13844 ****               0 ****  **** 
   6173  GOL          13845 ****               0 ****  **** 
   6174  GOL          13846 ****               0 ****  **** 
   6175  GOL          13847 ****               0 ****  **** 
   6176  GOL          13848 ****               0 ****  **** 
   6177  GOL          13849 ****               0 ****  **** 
   6178  GOL          13850 ****               0 ****  **** 
   6179  GOL          13851 ****               0 ****  **** 
   6180  GOL          13852 ****               0 ****  **** 
   6181  GOL          13853 ****               0 ****  **** 
   6182  GOL          13854 ****               0 ****  **** 
   6183  GOL          13855 ****               0 ****  **** 
   6184  GOL          13856 ****               0 ****  **** 
   6185  GOL          13857 ****               0 ****  **** 
   6186  GOL          13858 ****               0 ****  **** 
   6187  GOL          13859 ****               0 ****  **** 
   6188  GOL          13860 ****               0 ****  **** 
   6189  GOL          13861 ****               0 ****  **** 
   6190  GOL          13862 ****               0 ****  **** 
   6191  GOL          13863 ****               0 ****  **** 
   6192  GOL          13864 ****               0 ****  **** 
   6193  GOL          13865 ****               0 ****  **** 
   6194  GOL          13866 ****               0 ****  **** 
   6195  GOL          13867 ****               0 ****  **** 
   6196  GOL          13868 ****               0 ****  **** 
   6197  GOL          13869 ****               0 ****  **** 
   6198  GOL          13870 ****               0 ****  **** 
   6199  GOL          13871 ****               0 ****  **** 
   6200  GOL          13872 ****               0 ****  **** 
   6201  GOL          13873 ****               0 ****  **** 
   6202  GOL          13874 ****               0 ****  **** 
   6203  GOL          13875 ****               0 ****  **** 
   6204  GOL          13876 ****               0 ****  **** 
   6205  GOL          13877 ****               0 ****  **** 
   6206  GOL          13878 ****               0 ****  **** 
   6207  GOL          13879 ****               0 ****  **** 
   6208  GOL          13880 ****               0 ****  **** 
   6209  GOL          13881 ****               0 ****  **** 
   6210  GOL          13882 ****               0 ****  **** 
   6211  GOL          13883 ****               0 ****  **** 
   6212  GOL          13884 ****               0 ****  **** 
   6213  GOL          13885 ****               0 ****  **** 
   6214  GOL          13886 ****               0 ****  **** 
   6215  GOL          13887 ****               0 ****  **** 
   6216  GOL          13888 ****               0 ****  **** 
   6217  GOL          13889 ****               0 ****  **** 
   6218  GOL          13890 ****               0 ****  **** 
   6219  GOL          13891 ****               0 ****  **** 
   6220  GOL          13892 ****               0 ****  **** 
   6221  GOL          13893 ****               0 ****  **** 
   6222  GOL          13894 ****               0 ****  **** 
   6223  GOL          13895 ****               0 ****  **** 
   6224  GOL          13896 ****               0 ****  **** 
   6225  GOL          13897 ****               0 ****  **** 
   6226  GOL          13898 ****               0 ****  **** 
   6227  GOL          13899 ****               0 ****  **** 
   6228  GOL          13900 ****               0 ****  **** 
   6229  GOL          13901 ****               0 ****  **** 
   6230  GOL          13902 ****               0 ****  **** 
   6231  GOL          13903 ****               0 ****  **** 
   6232  GOL          13904 ****               0 ****  **** 
   6233  GOL          13905 ****               0 ****  **** 
   6234  GOL          13906 ****               0 ****  **** 
   6235  GOL          13907 ****               0 ****  **** 
   6236  GOL          13908 ****               0 ****  **** 
   6237  GOL          13909 ****               0 ****  **** 
   6238  GOL          13910 ****               0 ****  **** 
   6239  GOL          13911 ****               0 ****  **** 
   6240  GOL          13912 ****               0 ****  **** 
   6241  GOL          13913 ****               0 ****  **** 
   6242  GOL          13914 ****               0 ****  **** 
   6243  GOL          13915 ****               0 ****  **** 
   6244  GOL          13916 ****               0 ****  **** 
   6245  GOL          13917 ****               0 ****  **** 
   6246  GOL          13918 ****               0 ****  **** 
   6247  GOL          13919 ****               0 ****  **** 
   6248  GOL          13920 ****               0 ****  **** 
   6249  GOL          13921 ****               0 ****  **** 
   6250  GOL          13922 ****               0 ****  **** 
   6251  GOL          13923 ****               0 ****  **** 
   6252  GOL          13924 ****               0 ****  **** 
   6253  GOL          13925 ****               0 ****  **** 
   6254  GOL          13926 ****               0 ****  **** 
   6255  GOL          13927 ****               0 ****  **** 
   6256  GOL          13928 ****               0 ****  **** 
   6257  GOL          13929 ****               0 ****  **** 
   6258  GOL          13930 ****               0 ****  **** 
   6259  GOL          13931 ****               0 ****  **** 
   6260  GOL          13932 ****               0 ****  **** 
   6261  GOL          13933 ****               0 ****  **** 
   6262  GOL          13934 ****               0 ****  **** 
   6263  GOL          13935 ****               0 ****  **** 
   6264  GOL          13936 ****               0 ****  **** 
   6265  GOL          13937 ****               0 ****  **** 
   6266  GOL          13938 ****               0 ****  **** 
   6267  GOL          13939 ****               0 ****  **** 
   6268  GOL          13940 ****               0 ****  **** 
   6269  GOL          13941 ****               0 ****  **** 
   6270  GOL          13942 ****               0 ****  **** 
   6271  GOL          13943 ****               0 ****  **** 
   6272  GOL          13944 ****               0 ****  **** 
   6273  GOL          13945 ****               0 ****  **** 
   6274  GOL          13946 ****               0 ****  **** 
   6275  GOL          13947 ****               0 ****  **** 
   6276  GOL          13948 ****               0 ****  **** 
   6277  GOL          13949 ****               0 ****  **** 
   6278  GOL          13950 ****               0 ****  **** 
   6279  GOL          13951 ****               0 ****  **** 
   6280  GOL          13952 ****               0 ****  **** 
   6281  GOL          13953 ****               0 ****  **** 
   6282  GOL          13954 ****               0 ****  **** 
   6283  GOL          13955 ****               0 ****  **** 
   6284  GOL          13956 ****               0 ****  **** 
   6285  GOL          13957 ****               0 ****  **** 
   6286  GOL          13958 ****               0 ****  **** 
   6287  GOL          13959 ****               0 ****  **** 
   6288  GOL          13960 ****               0 ****  **** 
   6289  GOL          13961 ****               0 ****  **** 
   6290  GOL          13962 ****               0 ****  **** 
   6291  GOL          13963 ****               0 ****  **** 
   6292  GOL          13964 ****               0 ****  **** 
   6293  GOL          13965 ****               0 ****  **** 
   6294  GOL          13966 ****               0 ****  **** 
   6295  GOL          13967 ****               0 ****  **** 
   6296  GOL          13968 ****               0 ****  **** 
   6297  GOL          13969 ****               0 ****  **** 
   6298  GOL          13970 ****               0 ****  **** 
   6299  GOL          13971 ****               0 ****  **** 
   6300  GOL          13972 ****               0 ****  **** 
   6301  GOL          13973 ****               0 ****  **** 
   6302  GOL          13974 ****               0 ****  **** 
   6303  GOL          13975 ****               0 ****  **** 
   6304  GOL          13976 ****               0 ****  **** 
   6305  GOL          13977 ****               0 ****  **** 
   6306  GOL          13978 ****               0 ****  **** 
   6307  GOL          13979 ****               0 ****  **** 
   6308  GOL          13980 ****               0 ****  **** 
   6309  GOL          13981 ****               0 ****  **** 
   6310  GOL          13982 ****               0 ****  **** 
   6311  GOL          13983 ****               0 ****  **** 
   6312  GOL          13984 ****               0 ****  **** 
   6313  GOL          13985 ****               0 ****  **** 
   6314  GOL          13986 ****               0 ****  **** 
   6315  GOL          13987 ****               0 ****  **** 
   6316  GOL          13988 ****               0 ****  **** 
   6317  GOL          13989 ****               0 ****  **** 
   6318  GOL          13990 ****               0 ****  **** 
   6319  GOL          13991 ****               0 ****  **** 
   6320  GOL          13992 ****               0 ****  **** 
   6321  GOL          13993 ****               0 ****  **** 
   6322  GOL          13994 ****               0 ****  **** 
   6323  GOL          13995 ****               0 ****  **** 
   6324  GOL          13996 ****               0 ****  **** 
   6325  GOL          13997 ****               0 ****  **** 
   6326  GOL          13998 ****               0 ****  **** 
   6327  GOL          13999 ****               0 ****  **** 
   6328  GOL          14000 ****               0 ****  **** 
   6329  GOL          14001 ****               0 ****  **** 
   6330  GOL          14002 ****               0 ****  **** 
   6331  GOL          14003 ****               0 ****  **** 
   6332  GOL          14004 ****               0 ****  **** 
   6333  GOL          14005 ****               0 ****  **** 
   6334  GOL          14006 ****               0 ****  **** 
   6335  GOL          14007 ****               0 ****  **** 
   6336  GOL          14008 ****               0 ****  **** 
   6337  GOL          14009 ****               0 ****  **** 
   6338  GOL          14010 ****               0 ****  **** 
   6339  GOL          14011 ****               0 ****  **** 
   6340  GOL          14012 ****               0 ****  **** 
   6341  GOL          14013 ****               0 ****  **** 
   6342  GOL          14014 ****               0 ****  **** 
   6343  GOL          14015 ****               0 ****  **** 
   6344  GOL          14016 ****               0 ****  **** 
   6345  GOL          14017 ****               0 ****  **** 
   6346  GOL          14018 ****               0 ****  **** 
   6347  GOL          14019 ****               0 ****  **** 
   6348  GOL          14020 ****               0 ****  **** 
   6349  GOL          14021 ****               0 ****  **** 
   6350  GOL          14022 ****               0 ****  **** 
   6351  GOL          14023 ****               0 ****  **** 
   6352  GOL          14024 ****               0 ****  **** 
   6353  GOL          14025 ****               0 ****  **** 
   6354  GOL          14026 ****               0 ****  **** 
   6355  GOL          14027 ****               0 ****  **** 
   6356  GOL          14028 ****               0 ****  **** 
   6357  GOL          14029 ****               0 ****  **** 
   6358  GOL          14030 ****               0 ****  **** 
   6359  GOL          14031 ****               0 ****  **** 
   6360  GOL          14032 ****               0 ****  **** 
   6361  GOL          14033 ****               0 ****  **** 
   6362  GOL          14034 ****               0 ****  **** 
   6363  GOL          14035 ****               0 ****  **** 
   6364  GOL          14036 ****               0 ****  **** 
   6365  GOL          14037 ****               0 ****  **** 
   6366  GOL          14038 ****               0 ****  **** 
   6367  GOL          14039 ****               0 ****  **** 
   6368  GOL          14040 ****               0 ****  **** 
   6369  GOL          14041 ****               0 ****  **** 
   6370  GOL          14042 ****               0 ****  **** 
   6371  GOL          14043 ****               0 ****  **** 
   6372  GOL          14044 ****               0 ****  **** 
   6373  GOL          14045 ****               0 ****  **** 
   6374  GOL          14046 ****               0 ****  **** 
   6375  GOL          14047 ****               0 ****  **** 
   6376  GOL          14048 ****               0 ****  **** 
   6377  GOL          14049 ****               0 ****  **** 
   6378  GOL          14050 ****               0 ****  **** 
   6379  GOL          14051 ****               0 ****  **** 
   6380  GOL          14052 ****               0 ****  **** 
   6381  GOL          14053 ****               0 ****  **** 
   6382  GOL          14054 ****               0 ****  **** 
   6383  GOL          14055 ****               0 ****  **** 
   6384  GOL          14056 ****               0 ****  **** 
   6385  GOL          14057 ****               0 ****  **** 
   6386  GOL          14058 ****               0 ****  **** 
   6387  GOL          14059 ****               0 ****  **** 
   6388  GOL          14060 ****               0 ****  **** 
   6389  GOL          14061 ****               0 ****  **** 
   6390  GOL          14062 ****               0 ****  **** 
   6391  GOL          14063 ****               0 ****  **** 
   6392  GOL          14064 ****               0 ****  **** 
   6393  GOL          14065 ****               0 ****  **** 
   6394  GOL          14066 ****               0 ****  **** 
   6395  GOL          14067 ****               0 ****  **** 
   6396  GOL          14068 ****               0 ****  **** 
   6397  GOL          14069 ****               0 ****  **** 
   6398  GOL          14070 ****               0 ****  **** 
   6399  GOL          14071 ****               0 ****  **** 
   6400  GOL          14072 ****               0 ****  **** 
   6401  GOL          14073 ****               0 ****  **** 
   6402  GOL          14074 ****               0 ****  **** 
   6403  GOL          14075 ****               0 ****  **** 
   6404  GOL          14076 ****               0 ****  **** 
   6405  GOL          14077 ****               0 ****  **** 
   6406  GOL          14078 ****               0 ****  **** 
   6407  GOL          14079 ****               0 ****  **** 
   6408  GOL          14080 ****               0 ****  **** 
   6409  GOL          14081 ****               0 ****  **** 
   6410  GOL          14082 ****               0 ****  **** 
   6411  GOL          14083 ****               0 ****  **** 
   6412  GOL          14084 ****               0 ****  **** 
   6413  GOL          14085 ****               0 ****  **** 
   6414  GOL          14086 ****               0 ****  **** 
   6415  GOL          14087 ****               0 ****  **** 
   6416  GOL          14088 ****               0 ****  **** 
   6417  GOL          14089 ****               0 ****  **** 
   6418  GOL          14090 ****               0 ****  **** 
   6419  GOL          14091 ****               0 ****  **** 
   6420  GOL          14092 ****               0 ****  **** 
   6421  GOL          14093 ****               0 ****  **** 
   6422  GOL          14094 ****               0 ****  **** 
   6423  GOL          14095 ****               0 ****  **** 
   6424  GOL          14096 ****               0 ****  **** 
   6425  GOL          14097 ****               0 ****  **** 
   6426  GOL          14098 ****               0 ****  **** 
   6427  GOL          14099 ****               0 ****  **** 
   6428  GOL          14100 ****               0 ****  **** 
   6429  GOL          14101 ****               0 ****  **** 
   6430  GOL          14102 ****               0 ****  **** 
   6431  GOL          14103 ****               0 ****  **** 
   6432  GOL          14104 ****               0 ****  **** 
   6433  GOL          14105 ****               0 ****  **** 
   6434  GOL          14106 ****               0 ****  **** 
   6435  GOL          14107 ****               0 ****  **** 
   6436  GOL          14108 ****               0 ****  **** 
   6437  GOL          14109 ****               0 ****  **** 
   6438  GOL          14110 ****               0 ****  **** 
   6439  GOL          14111 ****               0 ****  **** 
   6440  GOL          14112 ****               0 ****  **** 
   6441  GOL          14113 ****               0 ****  **** 
   6442  GOL          14114 ****               0 ****  **** 
   6443  GOL          14115 ****               0 ****  **** 
   6444  GOL          14116 ****               0 ****  **** 
   6445  GOL          14117 ****               0 ****  **** 
   6446  GOL          14118 ****               0 ****  **** 
   6447  GOL          14119 ****               0 ****  **** 
   6448  GOL          14120 ****               0 ****  **** 
   6449  GOL          14121 ****               0 ****  **** 
   6450  GOL          14122 ****               0 ****  **** 
   6451  GOL          14123 ****               0 ****  **** 
   6452  GOL          14124 ****               0 ****  **** 
   6453  GOL          14125 ****               0 ****  **** 
   6454  GOL          14126 ****               0 ****  **** 
   6455  GOL          14127 ****               0 ****  **** 
   6456  GOL          14128 ****               0 ****  **** 
   6457  GOL          14129 ****               0 ****  **** 
   6458  GOL          14130 ****               0 ****  **** 
   6459  GOL          14131 ****               0 ****  **** 
   6460  GOL          14132 ****               0 ****  **** 
   6461  GOL          14133 ****               0 ****  **** 
   6462  GOL          14134 ****               0 ****  **** 
   6463  GOL          14135 ****               0 ****  **** 
   6464  GOL          14136 ****               0 ****  **** 
   6465  GOL          14137 ****               0 ****  **** 
   6466  GOL          14138 ****               0 ****  **** 
   6467  GOL          14139 ****               0 ****  **** 
   6468  GOL          14140 ****               0 ****  **** 
   6469  GOL          14141 ****               0 ****  **** 
   6470  GOL          14142 ****               0 ****  **** 
   6471  GOL          14143 ****               0 ****  **** 
   6472  GOL          14144 ****               0 ****  **** 
   6473  GOL          14145 ****               0 ****  **** 
   6474  GOL          14146 ****               0 ****  **** 
   6475  GOL          14147 ****               0 ****  **** 
   6476  GOL          14148 ****               0 ****  **** 
   6477  GOL          14149 ****               0 ****  **** 
   6478  GOL          14150 ****               0 ****  **** 
   6479  GOL          14151 ****               0 ****  **** 
   6480  GOL          14152 ****               0 ****  **** 
   6481  GOL          14153 ****               0 ****  **** 
   6482  GOL          14154 ****               0 ****  **** 
   6483  GOL          14155 ****               0 ****  **** 
   6484  GOL          14156 ****               0 ****  **** 
   6485  GOL          14157 ****               0 ****  **** 
   6486  GOL          14158 ****               0 ****  **** 
   6487  GOL          14159 ****               0 ****  **** 
   6488  GOL          14160 ****               0 ****  **** 
   6489  GOL          14161 ****               0 ****  **** 
   6490  GOL          14162 ****               0 ****  **** 
   6491  GOL          14163 ****               0 ****  **** 
   6492  GOL          14164 ****               0 ****  **** 
   6493  GOL          14165 ****               0 ****  **** 
   6494  GOL          14166 ****               0 ****  **** 
   6495  GOL          14167 ****               0 ****  **** 
   6496  GOL          14168 ****               0 ****  **** 
   6497  GOL          14169 ****               0 ****  **** 
   6498  GOL          14170 ****               0 ****  **** 
   6499  GOL          14171 ****               0 ****  **** 
   6500  GOL          14172 ****               0 ****  **** 
   6501  GOL          14173 ****               0 ****  **** 
   6502  GOL          14174 ****               0 ****  **** 
   6503  GOL          14175 ****               0 ****  **** 
   6504  GOL          14176 ****               0 ****  **** 
   6505  GOL          14177 ****               0 ****  **** 
   6506  GOL          14178 ****               0 ****  **** 
   6507  GOL          14179 ****               0 ****  **** 
   6508  GOL          14180 ****               0 ****  **** 
   6509  GOL          14181 ****               0 ****  **** 
   6510  GOL          14182 ****               0 ****  **** 
   6511  GOL          14183 ****               0 ****  **** 
   6512  GOL          14184 ****               0 ****  **** 
   6513  GOL          14185 ****               0 ****  **** 
   6514  GOL          14186 ****               0 ****  **** 
   6515  GOL          14187 ****               0 ****  **** 
   6516  GOL          14188 ****               0 ****  **** 
   6517  GOL          14189 ****               0 ****  **** 
   6518  GOL          14190 ****               0 ****  **** 
   6519  GOL          14191 ****               0 ****  **** 
   6520  GOL          14192 ****               0 ****  **** 
   6521  GOL          14193 ****               0 ****  **** 
   6522  GOL          14194 ****               0 ****  **** 
   6523  GOL          14195 ****               0 ****  **** 
   6524  GOL          14196 ****               0 ****  **** 
   6525  GOL          14197 ****               0 ****  **** 
   6526  GOL          14198 ****               0 ****  **** 
   6527  GOL          14199 ****               0 ****  **** 
   6528  GOL          14200 ****               0 ****  **** 
   6529  GOL          14201 ****               0 ****  **** 
   6530  GOL          14202 ****               0 ****  **** 
   6531  GOL          14203 ****               0 ****  **** 
   6532  GOL          14204 ****               0 ****  **** 
   6533  GOL          14205 ****               0 ****  **** 
   6534  GOL          14206 ****               0 ****  **** 
   6535  GOL          14207 ****               0 ****  **** 
   6536  GOL          14208 ****               0 ****  **** 
   6537  GOL          14209 ****               0 ****  **** 
   6538  GOL          14210 ****               0 ****  **** 
   6539  GOL          14211 ****               0 ****  **** 
   6540  GOL          14212 ****               0 ****  **** 
   6541  GOL          14213 ****               0 ****  **** 
   6542  GOL          14214 ****               0 ****  **** 
   6543  GOL          14215 ****               0 ****  **** 
   6544  GOL          14216 ****               0 ****  **** 
   6545  GOL          14217 ****               0 ****  **** 
   6546  GOL          14218 ****               0 ****  **** 
   6547  GOL          14219 ****               0 ****  **** 
   6548  GOL          14220 ****               0 ****  **** 
   6549  GOL          14221 ****               0 ****  **** 
   6550  GOL          14222 ****               0 ****  **** 
   6551  GOL          14223 ****               0 ****  **** 
   6552  GOL          14224 ****               0 ****  **** 
   6553  GOL          14225 ****               0 ****  **** 
   6554  GOL          14226 ****               0 ****  **** 
   6555  GOL          14227 ****               0 ****  **** 
   6556  GOL          14228 ****               0 ****  **** 
   6557  GOL          14229 ****               0 ****  **** 
   6558  GOL          14230 ****               0 ****  **** 
   6559  GOL          14231 ****               0 ****  **** 
   6560  GOL          14232 ****               0 ****  **** 
   6561  GOL          14233 ****               0 ****  **** 
   6562  GOL          14234 ****               0 ****  **** 
   6563  GOL          14235 ****               0 ****  **** 
   6564  GOL          14236 ****               0 ****  **** 
   6565  GOL          14237 ****               0 ****  **** 
   6566  GOL          14238 ****               0 ****  **** 
   6567  GOL          14239 ****               0 ****  **** 
   6568  GOL          14240 ****               0 ****  **** 
   6569  GOL          14241 ****               0 ****  **** 
   6570  GOL          14242 ****               0 ****  **** 
   6571  GOL          14243 ****               0 ****  **** 
   6572  GOL          14244 ****               0 ****  **** 
   6573  GOL          14245 ****               0 ****  **** 
   6574  GOL          14246 ****               0 ****  **** 
   6575  GOL          14247 ****               0 ****  **** 
   6576  GOL          14248 ****               0 ****  **** 
   6577  GOL          14249 ****               0 ****  **** 
   6578  GOL          14250 ****               0 ****  **** 
   6579  GOL          14251 ****               0 ****  **** 
   6580  GOL          14252 ****               0 ****  **** 
   6581  GOL          14253 ****               0 ****  **** 
   6582  GOL          14254 ****               0 ****  **** 
   6583  GOL          14255 ****               0 ****  **** 
   6584  GOL          14256 ****               0 ****  **** 
   6585  GOL          14257 ****               0 ****  **** 
   6586  GOL          14258 ****               0 ****  **** 
   6587  GOL          14259 ****               0 ****  **** 
   6588  GOL          14260 ****               0 ****  **** 
   6589  GOL          14261 ****               0 ****  **** 
   6590  GOL          14262 ****               0 ****  **** 
   6591  GOL          14263 ****               0 ****  **** 
   6592  GOL          14264 ****               0 ****  **** 
   6593  GOL          14265 ****               0 ****  **** 
   6594  GOL          14266 ****               0 ****  **** 
   6595  GOL          14267 ****               0 ****  **** 
   6596  GOL          14268 ****               0 ****  **** 
   6597  GOL          14269 ****               0 ****  **** 
   6598  GOL          14270 ****               0 ****  **** 
   6599  GOL          14271 ****               0 ****  **** 
   6600  GOL          14272 ****               0 ****  **** 
   6601  GOL          14273 ****               0 ****  **** 
   6602  GOL          14274 ****               0 ****  **** 
   6603  GOL          14275 ****               0 ****  **** 
   6604  GOL          14276 ****               0 ****  **** 
   6605  GOL          14277 ****               0 ****  **** 
   6606  GOL          14278 ****               0 ****  **** 
   6607  GOL          14279 ****               0 ****  **** 
   6608  GOL          14280 ****               0 ****  **** 
   6609  GOL          14281 ****               0 ****  **** 
   6610  GOL          14282 ****               0 ****  **** 
   6611  GOL          14283 ****               0 ****  **** 
   6612  GOL          14284 ****               0 ****  **** 
   6613  GOL          14285 ****               0 ****  **** 
   6614  GOL          14286 ****               0 ****  **** 
   6615  GOL          14287 ****               0 ****  **** 
   6616  GOL          14288 ****               0 ****  **** 
   6617  GOL          14289 ****               0 ****  **** 
   6618  GOL          14290 ****               0 ****  **** 
   6619  GOL          14291 ****               0 ****  **** 
   6620  GOL          14292 ****               0 ****  **** 
   6621  GOL          14293 ****               0 ****  **** 
   6622  GOL          14294 ****               0 ****  **** 
   6623  GOL          14295 ****               0 ****  **** 
   6624  GOL          14296 ****               0 ****  **** 
   6625  GOL          14297 ****               0 ****  **** 
   6626  GOL          14298 ****               0 ****  **** 
   6627  GOL          14299 ****               0 ****  **** 
   6628  GOL          14300 ****               0 ****  **** 
   6629  GOL          14301 ****               0 ****  **** 
   6630  GOL          14302 ****               0 ****  **** 
   6631  GOL          14303 ****               0 ****  **** 
   6632  GOL          14304 ****               0 ****  **** 
   6633  GOL          14305 ****               0 ****  **** 
   6634  GOL          14306 ****               0 ****  **** 
   6635  GOL          14307 ****               0 ****  **** 
   6636  GOL          14308 ****               0 ****  **** 
   6637  GOL          14309 ****               0 ****  **** 
   6638  GOL          14310 ****               0 ****  **** 
   6639  GOL          14311 ****               0 ****  **** 
   6640  GOL          14312 ****               0 ****  **** 
   6641  GOL          14313 ****               0 ****  **** 
   6642  GOL          14314 ****               0 ****  **** 
   6643  GOL          14315 ****               0 ****  **** 
   6644  GOL          14316 ****               0 ****  **** 
   6645  GOL          14317 ****               0 ****  **** 
   6646  GOL          14318 ****               0 ****  **** 
   6647  GOL          14319 ****               0 ****  **** 
   6648  GOL          14320 ****               0 ****  **** 
   6649  GOL          14321 ****               0 ****  **** 
   6650  GOL          14322 ****               0 ****  **** 
   6651  GOL          14323 ****               0 ****  **** 
   6652  GOL          14324 ****               0 ****  **** 
   6653  GOL          14325 ****               0 ****  **** 
   6654  GOL          14326 ****               0 ****  **** 
   6655  GOL          14327 ****               0 ****  **** 
   6656  GOL          14328 ****               0 ****  **** 
   6657  GOL          14329 ****               0 ****  **** 
   6658  GOL          14330 ****               0 ****  **** 
   6659  GOL          14331 ****               0 ****  **** 
   6660  GOL          14332 ****               0 ****  **** 
   6661  GOL          14333 ****               0 ****  **** 
   6662  GOL          14334 ****               0 ****  **** 
   6663  GOL          14335 ****               0 ****  **** 
   6664  GOL          14336 ****               0 ****  **** 
   6665  GOL          14337 ****               0 ****  **** 
   6666  GOL          14338 ****               0 ****  **** 
   6667  GOL          14339 ****               0 ****  **** 
   6668  GOL          14340 ****               0 ****  **** 
   6669  GOL          14341 ****               0 ****  **** 
   6670  GOL          14342 ****               0 ****  **** 
   6671  GOL          14343 ****               0 ****  **** 
   6672  GOL          14344 ****               0 ****  **** 
   6673  GOL          14345 ****               0 ****  **** 
   6674  GOL          14346 ****               0 ****  **** 
   6675  GOL          14347 ****               0 ****  **** 
   6676  GOL          14348 ****               0 ****  **** 
   6677  GOL          14349 ****               0 ****  **** 
   6678  GOL          14350 ****               0 ****  **** 
   6679  GOL          14351 ****               0 ****  **** 
   6680  GOL          14352 ****               0 ****  **** 
   6681  GOL          14353 ****               0 ****  **** 
   6682  GOL          14354 ****               0 ****  **** 
   6683  GOL          14355 ****               0 ****  **** 
   6684  GOL          14356 ****               0 ****  **** 
   6685  GOL          14357 ****               0 ****  **** 
   6686  GOL          14358 ****               0 ****  **** 
   6687  GOL          14359 ****               0 ****  **** 
   6688  GOL          14360 ****               0 ****  **** 
   6689  GOL          14361 ****               0 ****  **** 
   6690  GOL          14362 ****               0 ****  **** 
   6691  GOL          14363 ****               0 ****  **** 
   6692  GOL          14364 ****               0 ****  **** 
   6693  GOL          14365 ****               0 ****  **** 
   6694  GOL          14366 ****               0 ****  **** 
   6695  GOL          14367 ****               0 ****  **** 
   6696  GOL          14368 ****               0 ****  **** 
   6697  GOL          14369 ****               0 ****  **** 
   6698  GOL          14370 ****               0 ****  **** 
   6699  GOL          14371 ****               0 ****  **** 
   6700  GOL          14372 ****               0 ****  **** 
   6701  GOL          14373 ****               0 ****  **** 
   6702  GOL          14374 ****               0 ****  **** 
   6703  GOL          14375 ****               0 ****  **** 
   6704  GOL          14376 ****               0 ****  **** 
   6705  GOL          14377 ****               0 ****  **** 
   6706  GOL          14378 ****               0 ****  **** 
   6707  GOL          14379 ****               0 ****  **** 
   6708  GOL          14380 ****               0 ****  **** 
   6709  GOL          14381 ****               0 ****  **** 
   6710  GOL          14382 ****               0 ****  **** 
   6711  GOL          14383 ****               0 ****  **** 
   6712  GOL          14384 ****               0 ****  **** 
   6713  GOL          14385 ****               0 ****  **** 
   6714  GOL          14386 ****               0 ****  **** 
   6715  GOL          14387 ****               0 ****  **** 
   6716  GOL          14388 ****               0 ****  **** 
   6717  GOL          14389 ****               0 ****  **** 
   6718  GOL          14390 ****               0 ****  **** 
   6719  GOL          14391 ****               0 ****  **** 
   6720  GOL          14392 ****               0 ****  **** 
   6721  GOL          14393 ****               0 ****  **** 
   6722  GOL          14394 ****               0 ****  **** 
   6723  GOL          14395 ****               0 ****  **** 
   6724  GOL          14396 ****               0 ****  **** 
   6725  GOL          14397 ****               0 ****  **** 
   6726  GOL          14398 ****               0 ****  **** 
   6727  GOL          14399 ****               0 ****  **** 
   6728  GOL          14400 ****               0 ****  **** 
   6729  GOL          14401 ****               0 ****  **** 
   6730  GOL          14402 ****               0 ****  **** 
   6731  GOL          14403 ****               0 ****  **** 
   6732  GOL          14404 ****               0 ****  **** 
   6733  GOL          14405 ****               0 ****  **** 
   6734  GOL          14406 ****               0 ****  **** 
   6735  GOL          14407 ****               0 ****  **** 
   6736  GOL          14408 ****               0 ****  **** 
   6737  GOL          14409 ****               0 ****  **** 
   6738  GOL          14410 ****               0 ****  **** 
   6739  GOL          14411 ****               0 ****  **** 
   6740  GOL          14412 ****               0 ****  **** 
   6741  GOL          14413 ****               0 ****  **** 
   6742  GOL          14414 ****               0 ****  **** 
   6743  GOL          14415 ****               0 ****  **** 
   6744  GOL          14416 ****               0 ****  **** 
   6745  GOL          14417 ****               0 ****  **** 
   6746  GOL          14418 ****               0 ****  **** 
   6747  GOL          14419 ****               0 ****  **** 
   6748  GOL          14420 ****               0 ****  **** 
   6749  GOL          14421 ****               0 ****  **** 
   6750  GOL          14422 ****               0 ****  **** 
   6751  GOL          14423 ****               0 ****  **** 
   6752  GOL          14424 ****               0 ****  **** 
   6753  GOL          14425 ****               0 ****  **** 
   6754  GOL          14426 ****               0 ****  **** 
   6755  GOL          14427 ****               0 ****  **** 
   6756  GOL          14428 ****               0 ****  **** 
   6757  GOL          14429 ****               0 ****  **** 
   6758  GOL          14430 ****               0 ****  **** 
   6759  GOL          14431 ****               0 ****  **** 
   6760  GOL          14432 ****               0 ****  **** 
   6761  GOL          14433 ****               0 ****  **** 
   6762  GOL          14434 ****               0 ****  **** 
   6763  GOL          14435 ****               0 ****  **** 
   6764  GOL          14436 ****               0 ****  **** 
   6765  GOL          14437 ****               0 ****  **** 
   6766  GOL          14438 ****               0 ****  **** 
   6767  GOL          14439 ****               0 ****  **** 
   6768  GOL          14440 ****               0 ****  **** 
   6769  GOL          14441 ****               0 ****  **** 
   6770  GOL          14442 ****               0 ****  **** 
   6771  GOL          14443 ****               0 ****  **** 
   6772  GOL          14444 ****               0 ****  **** 
   6773  GOL          14445 ****               0 ****  **** 
   6774  GOL          14446 ****               0 ****  **** 
   6775  GOL          14447 ****               0 ****  **** 
   6776  GOL          14448 ****               0 ****  **** 
   6777  GOL          14449 ****               0 ****  **** 
   6778  GOL          14450 ****               0 ****  **** 
   6779  GOL          14451 ****               0 ****  **** 
   6780  GOL          14452 ****               0 ****  **** 
   6781  GOL          14453 ****               0 ****  **** 
   6782  GOL          14454 ****               0 ****  **** 
   6783  GOL          14455 ****               0 ****  **** 
   6784  GOL          14456 ****               0 ****  **** 
   6785  GOL          14457 ****               0 ****  **** 
   6786  GOL          14458 ****               0 ****  **** 
   6787  GOL          14459 ****               0 ****  **** 
   6788  GOL          14460 ****               0 ****  **** 
   6789  GOL          14461 ****               0 ****  **** 
   6790  GOL          14462 ****               0 ****  **** 
   6791  GOL          14463 ****               0 ****  **** 
   6792  GOL          14464 ****               0 ****  **** 
   6793  GOL          14465 ****               0 ****  **** 
   6794  GOL          14466 ****               0 ****  **** 
   6795  GOL          14467 ****               0 ****  **** 
   6796  GOL          14468 ****               0 ****  **** 
   6797  GOL          14469 ****               0 ****  **** 
   6798  GOL          14470 ****               0 ****  **** 
   6799  GOL          14471 ****               0 ****  **** 
   6800  GOL          14472 ****               0 ****  **** 
   6801  GOL          14473 ****               0 ****  **** 
   6802  GOL          14474 ****               0 ****  **** 
   6803  GOL          14475 ****               0 ****  **** 
   6804  GOL          14476 ****               0 ****  **** 
   6805  GOL          14477 ****               0 ****  **** 
   6806  GOL          14478 ****               0 ****  **** 
   6807  GOL          14479 ****               0 ****  **** 
   6808  GOL          14480 ****               0 ****  **** 
   6809  GOL          14481 ****               0 ****  **** 
   6810  GOL          14482 ****               0 ****  **** 
   6811  GOL          14483 ****               0 ****  **** 
   6812  GOL          14484 ****               0 ****  **** 
   6813  GOL          14485 ****               0 ****  **** 
   6814  GOL          14486 ****               0 ****  **** 
   6815  GOL          14487 ****               0 ****  **** 
   6816  GOL          14488 ****               0 ****  **** 
   6817  GOL          14489 ****               0 ****  **** 
   6818  GOL          14490 ****               0 ****  **** 
   6819  GOL          14491 ****               0 ****  **** 
   6820  GOL          14492 ****               0 ****  **** 
   6821  GOL          14493 ****               0 ****  **** 
   6822  GOL          14494 ****               0 ****  **** 
   6823  GOL          14495 ****               0 ****  **** 
   6824  GOL          14496 ****               0 ****  **** 
   6825  GOL          14497 ****               0 ****  **** 
   6826  GOL          14498 ****               0 ****  **** 
   6827  GOL          14499 ****               0 ****  **** 
   6828  GOL          14500 ****               0 ****  **** 
   6829  GOL          14501 ****               0 ****  **** 
   6830  GOL          14502 ****               0 ****  **** 
   6831  GOL          14503 ****               0 ****  **** 
   6832  GOL          14504 ****               0 ****  **** 
   6833  GOL          14505 ****               0 ****  **** 
   6834  GOL          14506 ****               0 ****  **** 
   6835  GOL          14507 ****               0 ****  **** 
   6836  GOL          14508 ****               0 ****  **** 
   6837  GOL          14509 ****               0 ****  **** 
   6838  GOL          14510 ****               0 ****  **** 
   6839  GOL          14511 ****               0 ****  **** 
   6840  GOL          14512 ****               0 ****  **** 
   6841  GOL          14513 ****               0 ****  **** 
   6842  GOL          14514 ****               0 ****  **** 
   6843  GOL          14515 ****               0 ****  **** 
   6844  GOL          14516 ****               0 ****  **** 
   6845  GOL          14517 ****               0 ****  **** 
   6846  GOL          14518 ****               0 ****  **** 
   6847  GOL          14519 ****               0 ****  **** 
   6848  GOL          14520 ****               0 ****  **** 
   6849  GOL          14521 ****               0 ****  **** 
   6850  GOL          14522 ****               0 ****  **** 
   6851  GOL          14523 ****               0 ****  **** 
   6852  GOL          14524 ****               0 ****  **** 
   6853  GOL          14525 ****               0 ****  **** 
   6854  GOL          14526 ****               0 ****  **** 
   6855  GOL          14527 ****               0 ****  **** 
   6856  GOL          14528 ****               0 ****  **** 
   6857  GOL          14529 ****               0 ****  **** 
   6858  GOL          14530 ****               0 ****  **** 
   6859  GOL          14531 ****               0 ****  **** 
   6860  GOL          14532 ****               0 ****  **** 
   6861  GOL          14533 ****               0 ****  **** 
   6862  GOL          14534 ****               0 ****  **** 
   6863  GOL          14535 ****               0 ****  **** 
   6864  GOL          14536 ****               0 ****  **** 
   6865  GOL          14537 ****               0 ****  **** 
   6866  GOL          14538 ****               0 ****  **** 
   6867  GOL          14539 ****               0 ****  **** 
   6868  GOL          14540 ****               0 ****  **** 
   6869  GOL          14541 ****               0 ****  **** 
   6870  GOL          14542 ****               0 ****  **** 
   6871  GOL          14543 ****               0 ****  **** 
   6872  GOL          14544 ****               0 ****  **** 
   6873  GOL          14545 ****               0 ****  **** 
   6874  GOL          14546 ****               0 ****  **** 
   6875  GOL          14547 ****               0 ****  **** 
   6876  GOL          14548 ****               0 ****  **** 
   6877  GOL          14549 ****               0 ****  **** 
   6878  GOL          14550 ****               0 ****  **** 
   6879  GOL          14551 ****               0 ****  **** 
   6880  GOL          14552 ****               0 ****  **** 
   6881  GOL          14553 ****               0 ****  **** 
   6882  GOL          14554 ****               0 ****  **** 
   6883  GOL          14555 ****               0 ****  **** 
   6884  GOL          14556 ****               0 ****  **** 
   6885  GOL          14557 ****               0 ****  **** 
   6886  GOL          14558 ****               0 ****  **** 
   6887  GOL          14559 ****               0 ****  **** 
   6888  GOL          14560 ****               0 ****  **** 
   6889  GOL          14561 ****               0 ****  **** 
   6890  GOL          14562 ****               0 ****  **** 
   6891  GOL          14563 ****               0 ****  **** 
   6892  GOL          14564 ****               0 ****  **** 
   6893  GOL          14565 ****               0 ****  **** 
   6894  GOL          14566 ****               0 ****  **** 
   6895  GOL          14567 ****               0 ****  **** 
   6896  GOL          14568 ****               0 ****  **** 
   6897  GOL          14569 ****               0 ****  **** 
   6898  GOL          14570 ****               0 ****  **** 
   6899  GOL          14571 ****               0 ****  **** 
   6900  GOL          14572 ****               0 ****  **** 
   6901  GOL          14573 ****               0 ****  **** 
   6902  GOL          14574 ****               0 ****  **** 
   6903  GOL          14575 ****               0 ****  **** 
   6904  GOL          14576 ****               0 ****  **** 
   6905  GOL          14577 ****               0 ****  **** 
   6906  GOL          14578 ****               0 ****  **** 
   6907  GOL          14579 ****               0 ****  **** 
   6908  GOL          14580 ****               0 ****  **** 
   6909  GOL          14581 ****               0 ****  **** 
   6910  GOL          14582 ****               0 ****  **** 
   6911  GOL          14583 ****               0 ****  **** 
   6912  GOL          14584 ****               0 ****  **** 
   6913  GOL          14585 ****               0 ****  **** 
   6914  GOL          14586 ****               0 ****  **** 
   6915  GOL          14587 ****               0 ****  **** 
   6916  GOL          14588 ****               0 ****  **** 
   6917  GOL          14589 ****               0 ****  **** 
   6918  GOL          14590 ****               0 ****  **** 
   6919  GOL          14591 ****               0 ****  **** 
   6920  GOL          14592 ****               0 ****  **** 
   6921  GOL          14593 ****               0 ****  **** 
   6922  GOL          14594 ****               0 ****  **** 
   6923  GOL          14595 ****               0 ****  **** 
   6924  GOL          14596 ****               0 ****  **** 
   6925  GOL          14597 ****               0 ****  **** 
   6926  GOL          14598 ****               0 ****  **** 
   6927  GOL          14599 ****               0 ****  **** 
   6928  GOL          14600 ****               0 ****  **** 
   6929  GOL          14601 ****               0 ****  **** 
   6930  GOL          14602 ****               0 ****  **** 
   6931  GOL          14603 ****               0 ****  **** 
   6932  GOL          14604 ****               0 ****  **** 
   6933  GOL          14605 ****               0 ****  **** 
   6934  GOL          14606 ****               0 ****  **** 
   6935  GOL          14607 ****               0 ****  **** 
   6936  GOL          14608 ****               0 ****  **** 
   6937  GOL          14609 ****               0 ****  **** 
   6938  GOL          14610 ****               0 ****  **** 
   6939  GOL          14611 ****               0 ****  **** 
   6940  GOL          14612 ****               0 ****  **** 
   6941  GOL          14613 ****               0 ****  **** 
   6942  GOL          14614 ****               0 ****  **** 
   6943  GOL          14615 ****               0 ****  **** 
   6944  GOL          14616 ****               0 ****  **** 
   6945  GOL          14617 ****               0 ****  **** 
   6946  GOL          14618 ****               0 ****  **** 
   6947  GOL          14619 ****               0 ****  **** 
   6948  GOL          14620 ****               0 ****  **** 
   6949  GOL          14621 ****               0 ****  **** 
   6950  GOL          14622 ****               0 ****  **** 
   6951  GOL          14623 ****               0 ****  **** 
   6952  GOL          14624 ****               0 ****  **** 
   6953  GOL          14625 ****               0 ****  **** 
   6954  GOL          14626 ****               0 ****  **** 
   6955  GOL          14627 ****               0 ****  **** 
   6956  GOL          14628 ****               0 ****  **** 
   6957  GOL          14629 ****               0 ****  **** 
   6958  GOL          14630 ****               0 ****  **** 
   6959  GOL          14631 ****               0 ****  **** 
   6960  GOL          14632 ****               0 ****  **** 
   6961  GOL          14633 ****               0 ****  **** 
   6962  GOL          14634 ****               0 ****  **** 
   6963  GOL          14635 ****               0 ****  **** 
   6964  GOL          14636 ****               0 ****  **** 
   6965  GOL          14637 ****               0 ****  **** 
   6966  GOL          14638 ****               0 ****  **** 
   6967  GOL          14639 ****               0 ****  **** 
   6968  GOL          14640 ****               0 ****  **** 
   6969  GOL          14641 ****               0 ****  **** 
   6970  GOL          14642 ****               0 ****  **** 
   6971  GOL          14643 ****               0 ****  **** 
   6972  GOL          14644 ****               0 ****  **** 
   6973  GOL          14645 ****               0 ****  **** 
   6974  GOL          14646 ****               0 ****  **** 
   6975  GOL          14647 ****               0 ****  **** 
   6976  GOL          14648 ****               0 ****  **** 
   6977  GOL          14649 ****               0 ****  **** 
   6978  GOL          14650 ****               0 ****  **** 
   6979  GOL          14651 ****               0 ****  **** 
   6980  GOL          14652 ****               0 ****  **** 
   6981  GOL          14653 ****               0 ****  **** 
   6982  GOL          14654 ****               0 ****  **** 
   6983  GOL          14655 ****               0 ****  **** 
   6984  GOL          14656 ****               0 ****  **** 
   6985  GOL          14657 ****               0 ****  **** 
   6986  GOL          14658 ****               0 ****  **** 
   6987  GOL          14659 ****               0 ****  **** 
   6988  GOL          14660 ****               0 ****  **** 
   6989  GOL          14661 ****               0 ****  **** 
   6990  GOL          14662 ****               0 ****  **** 
   6991  GOL          14663 ****               0 ****  **** 
   6992  GOL          14664 ****               0 ****  **** 
   6993  GOL          14665 ****               0 ****  **** 
   6994  GOL          14666 ****               0 ****  **** 
   6995  GOL          14667 ****               0 ****  **** 
   6996  GOL          14668 ****               0 ****  **** 
   6997  GOL          14669 ****               0 ****  **** 
   6998  GOL          14670 ****               0 ****  **** 
   6999  GOL          14671 ****               0 ****  **** 
   7000  GOL          14672 ****               0 ****  **** 
   7001  GOL          14673 ****               0 ****  **** 
   7002  GOL          14674 ****               0 ****  **** 
   7003  GOL          14675 ****               0 ****  **** 
   7004  GOL          14676 ****               0 ****  **** 
   7005  GOL          14677 ****               0 ****  **** 
   7006  GOL          14678 ****               0 ****  **** 
   7007  GOL          14679 ****               0 ****  **** 
   7008  GOL          14680 ****               0 ****  **** 
   7009  GOL          14681 ****               0 ****  **** 
   7010  GOL          14682 ****               0 ****  **** 
   7011  GOL          14683 ****               0 ****  **** 
   7012  GOL          14684 ****               0 ****  **** 
   7013  GOL          14685 ****               0 ****  **** 
   7014  GOL          14686 ****               0 ****  **** 
   7015  GOL          14687 ****               0 ****  **** 
   7016  GOL          14688 ****               0 ****  **** 
   7017  GOL          14689 ****               0 ****  **** 
   7018  GOL          14690 ****               0 ****  **** 
   7019  GOL          14691 ****               0 ****  **** 
   7020  GOL          14692 ****               0 ****  **** 
   7021  GOL          14693 ****               0 ****  **** 
   7022  GOL          14694 ****               0 ****  **** 
   7023  GOL          14695 ****               0 ****  **** 
   7024  GOL          14696 ****               0 ****  **** 
   7025  GOL          14697 ****               0 ****  **** 
   7026  GOL          14698 ****               0 ****  **** 
   7027  GOL          14699 ****               0 ****  **** 
   7028  GOL          14700 ****               0 ****  **** 
   7029  GOL          14701 ****               0 ****  **** 
   7030  GOL          14702 ****               0 ****  **** 
   7031  GOL          14703 ****               0 ****  **** 
   7032  GOL          14704 ****               0 ****  **** 
   7033  GOL          14705 ****               0 ****  **** 
   7034  GOL          14706 ****               0 ****  **** 
   7035  GOL          14707 ****               0 ****  **** 
   7036  GOL          14708 ****               0 ****  **** 
   7037  GOL          14709 ****               0 ****  **** 
   7038  GOL          14710 ****               0 ****  **** 
   7039  GOL          14711 ****               0 ****  **** 
   7040  GOL          14712 ****               0 ****  **** 
   7041  GOL          14713 ****               0 ****  **** 
   7042  GOL          14714 ****               0 ****  **** 
   7043  GOL          14715 ****               0 ****  **** 
   7044  GOL          14716 ****               0 ****  **** 
   7045  GOL          14717 ****               0 ****  **** 
   7046  GOL          14718 ****               0 ****  **** 
   7047  GOL          14719 ****               0 ****  **** 
   7048  GOL          14720 ****               0 ****  **** 
   7049  GOL          14721 ****               0 ****  **** 
   7050  GOL          14722 ****               0 ****  **** 
   7051  GOL          14723 ****               0 ****  **** 
   7052  GOL          14724 ****               0 ****  **** 
   7053  GOL          14725 ****               0 ****  **** 
   7054  GOL          14726 ****               0 ****  **** 
   7055  GOL          14727 ****               0 ****  **** 
   7056  GOL          14728 ****               0 ****  **** 
   7057  GOL          14729 ****               0 ****  **** 
   7058  GOL          14730 ****               0 ****  **** 
   7059  GOL          14731 ****               0 ****  **** 
   7060  GOL          14732 ****               0 ****  **** 
   7061  GOL          14733 ****               0 ****  **** 
   7062  GOL          14734 ****               0 ****  **** 
   7063  GOL          14735 ****               0 ****  **** 
   7064  GOL          14736 ****               0 ****  **** 
   7065  GOL          14737 ****               0 ****  **** 
   7066  GOL          14738 ****               0 ****  **** 
   7067  GOL          14739 ****               0 ****  **** 
   7068  GOL          14740 ****               0 ****  **** 
   7069  GOL          14741 ****               0 ****  **** 
   7070  GOL          14742 ****               0 ****  **** 
   7071  GOL          14743 ****               0 ****  **** 
   7072  GOL          14744 ****               0 ****  **** 
   7073  GOL          14745 ****               0 ****  **** 
   7074  GOL          14746 ****               0 ****  **** 
   7075  GOL          14747 ****               0 ****  **** 
   7076  GOL          14748 ****               0 ****  **** 
   7077  GOL          14749 ****               0 ****  **** 
   7078  GOL          14750 ****               0 ****  **** 
   7079  GOL          14751 ****               0 ****  **** 
   7080  GOL          14752 ****               0 ****  **** 
   7081  GOL          14753 ****               0 ****  **** 
   7082  GOL          14754 ****               0 ****  **** 
   7083  GOL          14755 ****               0 ****  **** 
   7084  GOL          14756 ****               0 ****  **** 
   7085  GOL          14757 ****               0 ****  **** 
   7086  GOL          14758 ****               0 ****  **** 
   7087  GOL          14759 ****               0 ****  **** 
   7088  GOL          14760 ****               0 ****  **** 
   7089  GOL          14761 ****               0 ****  **** 
   7090  GOL          14762 ****               0 ****  **** 
   7091  GOL          14763 ****               0 ****  **** 
   7092  GOL          14764 ****               0 ****  **** 
   7093  GOL          14765 ****               0 ****  **** 
   7094  GOL          14766 ****               0 ****  **** 
   7095  GOL          14767 ****               0 ****  **** 
   7096  GOL          14768 ****               0 ****  **** 
   7097  GOL          14769 ****               0 ****  **** 
   7098  GOL          14770 ****               0 ****  **** 
   7099  GOL          14771 ****               0 ****  **** 
   7100  GOL          14772 ****               0 ****  **** 
   7101  GOL          14773 ****               0 ****  **** 
   7102  GOL          14774 ****               0 ****  **** 
   7103  GOL          14775 ****               0 ****  **** 
   7104  GOL          14776 ****               0 ****  **** 
   7105  GOL          14777 ****               0 ****  **** 
   7106  GOL          14778 ****               0 ****  **** 
   7107  GOL          14779 ****               0 ****  **** 
   7108  GOL          14780 ****               0 ****  **** 
   7109  GOL          14781 ****               0 ****  **** 
   7110  GOL          14782 ****               0 ****  **** 
   7111  GOL          14783 ****               0 ****  **** 
   7112  GOL          14784 ****               0 ****  **** 
   7113  GOL          14785 ****               0 ****  **** 
   7114  GOL          14786 ****               0 ****  **** 
   7115  GOL          14787 ****               0 ****  **** 
   7116  GOL          14788 ****               0 ****  **** 
   7117  GOL          14789 ****               0 ****  **** 
   7118  GOL          14790 ****               0 ****  **** 
   7119  GOL          14791 ****               0 ****  **** 
   7120  GOL          14792 ****               0 ****  **** 
   7121  GOL          14793 ****               0 ****  **** 
   7122  GOL          14794 ****               0 ****  **** 
   7123  GOL          14795 ****               0 ****  **** 
   7124  GOL          14796 ****               0 ****  **** 
   7125  GOL          14797 ****               0 ****  **** 
   7126  GOL          14798 ****               0 ****  **** 
   7127  GOL          14799 ****               0 ****  **** 
   7128  GOL          14800 ****               0 ****  **** 
   7129  GOL          14801 ****               0 ****  **** 
   7130  GOL          14802 ****               0 ****  **** 
   7131  GOL          14803 ****               0 ****  **** 
   7132  GOL          14804 ****               0 ****  **** 
   7133  GOL          14805 ****               0 ****  **** 
   7134  GOL          14806 ****               0 ****  **** 
   7135  GOL          14807 ****               0 ****  **** 
   7136  GOL          14808 ****               0 ****  **** 
   7137  GOL          14809 ****               0 ****  **** 
   7138  GOL          14810 ****               0 ****  **** 
   7139  GOL          14811 ****               0 ****  **** 
   7140  GOL          14812 ****               0 ****  **** 
   7141  GOL          14813 ****               0 ****  **** 
   7142  GOL          14814 ****               0 ****  **** 
   7143  GOL          14815 ****               0 ****  **** 
   7144  GOL          14816 ****               0 ****  **** 
   7145  GOL          14817 ****               0 ****  **** 
   7146  GOL          14818 ****               0 ****  **** 
   7147  GOL          14819 ****               0 ****  **** 
   7148  GOL          14820 ****               0 ****  **** 
   7149  GOL          14821 ****               0 ****  **** 
   7150  GOL          14822 ****               0 ****  **** 
   7151  GOL          14823 ****               0 ****  **** 
   7152  GOL          14824 ****               0 ****  **** 
   7153  GOL          14825 ****               0 ****  **** 
   7154  GOL          14826 ****               0 ****  **** 
   7155  GOL          14827 ****               0 ****  **** 
   7156  GOL          14828 ****               0 ****  **** 
   7157  GOL          14829 ****               0 ****  **** 
   7158  GOL          14830 ****               0 ****  **** 
   7159  GOL          14831 ****               0 ****  **** 
   7160  GOL          14832 ****               0 ****  **** 
   7161  GOL          14833 ****               0 ****  **** 
   7162  GOL          14834 ****               0 ****  **** 
   7163  GOL          14835 ****               0 ****  **** 
   7164  GOL          14836 ****               0 ****  **** 
   7165  GOL          14837 ****               0 ****  **** 
   7166  GOL          14838 ****               0 ****  **** 
   7167  GOL          14839 ****               0 ****  **** 
   7168  GOL          14840 ****               0 ****  **** 
   7169  GOL          14841 ****               0 ****  **** 
   7170  GOL          14842 ****               0 ****  **** 
   7171  GOL          14843 ****               0 ****  **** 
   7172  GOL          14844 ****               0 ****  **** 
   7173  GOL          14845 ****               0 ****  **** 
   7174  GOL          14846 ****               0 ****  **** 
   7175  GOL          14847 ****               0 ****  **** 
   7176  GOL          14848 ****               0 ****  **** 
   7177  GOL          14849 ****               0 ****  **** 
   7178  GOL          14850 ****               0 ****  **** 
   7179  GOL          14851 ****               0 ****  **** 
   7180  GOL          14852 ****               0 ****  **** 
   7181  GOL          14853 ****               0 ****  **** 
   7182  GOL          14854 ****               0 ****  **** 
   7183  GOL          14855 ****               0 ****  **** 
   7184  GOL          14856 ****               0 ****  **** 
   7185  GOL          14857 ****               0 ****  **** 
   7186  GOL          14858 ****               0 ****  **** 
   7187  GOL          14859 ****               0 ****  **** 
   7188  GOL          14860 ****               0 ****  **** 
   7189  GOL          14861 ****               0 ****  **** 
   7190  GOL          14862 ****               0 ****  **** 
   7191  GOL          14863 ****               0 ****  **** 
   7192  GOL          14864 ****               0 ****  **** 
   7193  GOL          14865 ****               0 ****  **** 
   7194  GOL          14866 ****               0 ****  **** 
   7195  GOL          14867 ****               0 ****  **** 
   7196  GOL          14868 ****               0 ****  **** 
   7197  GOL          14869 ****               0 ****  **** 
   7198  GOL          14870 ****               0 ****  **** 
   7199  GOL          14871 ****               0 ****  **** 
   7200  GOL          14872 ****               0 ****  **** 
   7201  GOL          14873 ****               0 ****  **** 
   7202  GOL          14874 ****               0 ****  **** 
   7203  GOL          14875 ****               0 ****  **** 
   7204  GOL          14876 ****               0 ****  **** 
   7205  GOL          14877 ****               0 ****  **** 
   7206  GOL          14878 ****               0 ****  **** 
   7207  GOL          14879 ****               0 ****  **** 
   7208  GOL          14880 ****               0 ****  **** 
   7209  GOL          14881 ****               0 ****  **** 
   7210  GOL          14882 ****               0 ****  **** 
   7211  GOL          14883 ****               0 ****  **** 
   7212  GOL          14884 ****               0 ****  **** 
   7213  GOL          14885 ****               0 ****  **** 
   7214  GOL          14886 ****               0 ****  **** 
   7215  GOL          14887 ****               0 ****  **** 
   7216  GOL          14888 ****               0 ****  **** 
   7217  GOL          14889 ****               0 ****  **** 
   7218  GOL          14890 ****               0 ****  **** 
   7219  GOL          14891 ****               0 ****  **** 
   7220  GOL          14892 ****               0 ****  **** 
   7221  GOL          14893 ****               0 ****  **** 
   7222  GOL          14894 ****               0 ****  **** 
   7223  GOL          14895 ****               0 ****  **** 
   7224  GOL          14896 ****               0 ****  **** 
   7225  GOL          14897 ****               0 ****  **** 
   7226  GOL          14898 ****               0 ****  **** 
   7227  GOL          14899 ****               0 ****  **** 
   7228  GOL          14900 ****               0 ****  **** 
   7229  GOL          14901 ****               0 ****  **** 
   7230  GOL          14902 ****               0 ****  **** 
   7231  GOL          14903 ****               0 ****  **** 
   7232  GOL          14904 ****               0 ****  **** 
   7233  GOL          14905 ****               0 ****  **** 
   7234  GOL          14906 ****               0 ****  **** 
   7235  GOL          14907 ****               0 ****  **** 
   7236  GOL          14908 ****               0 ****  **** 
   7237  GOL          14909 ****               0 ****  **** 
   7238  GOL          14910 ****               0 ****  **** 
   7239  GOL          14911 ****               0 ****  **** 
   7240  GOL          14912 ****               0 ****  **** 
   7241  GOL          14913 ****               0 ****  **** 
   7242  GOL          14914 ****               0 ****  **** 
   7243  GOL          14915 ****               0 ****  **** 
   7244  GOL          14916 ****               0 ****  **** 
   7245  GOL          14917 ****               0 ****  **** 
   7246  GOL          14918 ****               0 ****  **** 
   7247  GOL          14919 ****               0 ****  **** 
   7248  GOL          14920 ****               0 ****  **** 
   7249  GOL          14921 ****               0 ****  **** 
   7250  GOL          14922 ****               0 ****  **** 
   7251  GOL          14923 ****               0 ****  **** 
   7252  GOL          14924 ****               0 ****  **** 
   7253  GOL          14925 ****               0 ****  **** 
   7254  GOL          14926 ****               0 ****  **** 
   7255  GOL          14927 ****               0 ****  **** 
   7256  GOL          14928 ****               0 ****  **** 
   7257  GOL          14929 ****               0 ****  **** 
   7258  GOL          14930 ****               0 ****  **** 
   7259  GOL          14931 ****               0 ****  **** 
   7260  GOL          14932 ****               0 ****  **** 
   7261  GOL          14933 ****               0 ****  **** 
   7262  GOL          14934 ****               0 ****  **** 
   7263  GOL          14935 ****               0 ****  **** 
   7264  GOL          14936 ****               0 ****  **** 
   7265  GOL          14937 ****               0 ****  **** 
   7266  GOL          14938 ****               0 ****  **** 
   7267  GOL          14939 ****               0 ****  **** 
   7268  GOL          14940 ****               0 ****  **** 
   7269  GOL          14941 ****               0 ****  **** 
   7270  GOL          14942 ****               0 ****  **** 
   7271  GOL          14943 ****               0 ****  **** 
   7272  GOL          14944 ****               0 ****  **** 
   7273  GOL          14945 ****               0 ****  **** 
   7274  GOL          14946 ****               0 ****  **** 
   7275  GOL          14947 ****               0 ****  **** 
   7276  GOL          14948 ****               0 ****  **** 
   7277  GOL          14949 ****               0 ****  **** 
   7278  GOL          14950 ****               0 ****  **** 
   7279  GOL          14951 ****               0 ****  **** 
   7280  GOL          14952 ****               0 ****  **** 
   7281  GOL          14953 ****               0 ****  **** 
   7282  GOL          14954 ****               0 ****  **** 
   7283  GOL          14955 ****               0 ****  **** 
   7284  GOL          14956 ****               0 ****  **** 
   7285  GOL          14957 ****               0 ****  **** 
   7286  GOL          14958 ****               0 ****  **** 
   7287  GOL          14959 ****               0 ****  **** 
   7288  GOL          14960 ****               0 ****  **** 
   7289  GOL          14961 ****               0 ****  **** 
   7290  GOL          14962 ****               0 ****  **** 
   7291  GOL          14963 ****               0 ****  **** 
   7292  GOL          14964 ****               0 ****  **** 
   7293  GOL          14965 ****               0 ****  **** 
   7294  GOL          14966 ****               0 ****  **** 
   7295  GOL          14967 ****               0 ****  **** 
   7296  GOL          14968 ****               0 ****  **** 
   7297  GOL          14969 ****               0 ****  **** 
   7298  GOL          14970 ****               0 ****  **** 
   7299  GOL          14971 ****               0 ****  **** 
   7300  GOL          14972 ****               0 ****  **** 
   7301  GOL          14973 ****               0 ****  **** 
   7302  GOL          14974 ****               0 ****  **** 
   7303  GOL          14975 ****               0 ****  **** 
   7304  GOL          14976 ****               0 ****  **** 
   7305  GOL          14977 ****               0 ****  **** 
   7306  GOL          14978 ****               0 ****  **** 
   7307  GOL          14979 ****               0 ****  **** 
   7308  GOL          14980 ****               0 ****  **** 
   7309  GOL          14981 ****               0 ****  **** 
   7310  GOL          14982 ****               0 ****  **** 
   7311  GOL          14983 ****               0 ****  **** 
   7312  GOL          14984 ****               0 ****  **** 
   7313  GOL          14985 ****               0 ****  **** 
   7314  GOL          14986 ****               0 ****  **** 
   7315  GOL          14987 ****               0 ****  **** 
   7316  GOL          14988 ****               0 ****  **** 
   7317  GOL          14989 ****               0 ****  **** 
   7318  GOL          14990 ****               0 ****  **** 
   7319  GOL          14991 ****               0 ****  **** 
   7320  GOL          14992 ****               0 ****  **** 
   7321  GOL          14993 ****               0 ****  **** 
   7322  GOL          14994 ****               0 ****  **** 
   7323  GOL          14995 ****               0 ****  **** 
   7324  GOL          14996 ****               0 ****  **** 
   7325  GOL          14997 ****               0 ****  **** 
   7326  GOL          14998 ****               0 ****  **** 
   7327  GOL          14999 ****               0 ****  **** 
   7328  GOL          15000 ****               0 ****  **** 
   7329  GOL          15001 ****               0 ****  **** 
   7330  GOL          15002 ****               0 ****  **** 
   7331  GOL          15003 ****               0 ****  **** 
   7332  GOL          15004 ****               0 ****  **** 
   7333  GOL          15005 ****               0 ****  **** 
   7334  GOL          15006 ****               0 ****  **** 
   7335  GOL          15007 ****               0 ****  **** 
   7336  GOL          15008 ****               0 ****  **** 
   7337  GOL          15009 ****               0 ****  **** 
   7338  GOL          15010 ****               0 ****  **** 
   7339  GOL          15011 ****               0 ****  **** 
   7340  GOL          15012 ****               0 ****  **** 
   7341  GOL          15013 ****               0 ****  **** 
   7342  GOL          15014 ****               0 ****  **** 
   7343  GOL          15015 ****               0 ****  **** 
   7344  GOL          15016 ****               0 ****  **** 
   7345  GOL          15017 ****               0 ****  **** 
   7346  GOL          15018 ****               0 ****  **** 
   7347  GOL          15019 ****               0 ****  **** 
   7348  GOL          15020 ****               0 ****  **** 
   7349  GOL          15021 ****               0 ****  **** 
   7350  GOL          15022 ****               0 ****  **** 
   7351  GOL          15023 ****               0 ****  **** 
   7352  GOL          15024 ****               0 ****  **** 
   7353  GOL          15025 ****               0 ****  **** 
   7354  GOL          15026 ****               0 ****  **** 
   7355  GOL          15027 ****               0 ****  **** 
   7356  GOL          15028 ****               0 ****  **** 
   7357  GOL          15029 ****               0 ****  **** 
   7358  GOL          15030 ****               0 ****  **** 
   7359  GOL          15031 ****               0 ****  **** 
   7360  GOL          15032 ****               0 ****  **** 
   7361  GOL          15033 ****               0 ****  **** 
   7362  GOL          15034 ****               0 ****  **** 
   7363  GOL          15035 ****               0 ****  **** 
   7364  GOL          15036 ****               0 ****  **** 
   7365  GOL          15037 ****               0 ****  **** 
   7366  GOL          15038 ****               0 ****  **** 
   7367  GOL          15039 ****               0 ****  **** 
   7368  GOL          15040 ****               0 ****  **** 
   7369  GOL          15041 ****               0 ****  **** 
   7370  GOL          15042 ****               0 ****  **** 
   7371  GOL          15043 ****               0 ****  **** 
   7372  GOL          15044 ****               0 ****  **** 
   7373  GOL          15045 ****               0 ****  **** 
   7374  GOL          15046 ****               0 ****  **** 
   7375  GOL          15047 ****               0 ****  **** 
   7376  GOL          15048 ****               0 ****  **** 
   7377  GOL          15049 ****               0 ****  **** 
   7378  GOL          15050 ****               0 ****  **** 
   7379  GOL          15051 ****               0 ****  **** 
   7380  GOL          15052 ****               0 ****  **** 
   7381  GOL          15053 ****               0 ****  **** 
   7382  GOL          15054 ****               0 ****  **** 
   7383  GOL          15055 ****               0 ****  **** 
   7384  GOL          15056 ****               0 ****  **** 
   7385  GOL          15057 ****               0 ****  **** 
   7386  GOL          15058 ****               0 ****  **** 
   7387  GOL          15059 ****               0 ****  **** 
   7388  GOL          15060 ****               0 ****  **** 
   7389  GOL          15061 ****               0 ****  **** 
   7390  GOL          15062 ****               0 ****  **** 
   7391  GOL          15063 ****               0 ****  **** 
   7392  GOL          15064 ****               0 ****  **** 
   7393  GOL          15065 ****               0 ****  **** 
   7394  GOL          15066 ****               0 ****  **** 
   7395  GOL          15067 ****               0 ****  **** 
   7396  GOL          15068 ****               0 ****  **** 
   7397  GOL          15069 ****               0 ****  **** 
   7398  GOL          15070 ****               0 ****  **** 
   7399  GOL          15071 ****               0 ****  **** 
   7400  GOL          15072 ****               0 ****  **** 
   7401  GOL          15073 ****               0 ****  **** 
   7402  GOL          15074 ****               0 ****  **** 
   7403  GOL          15075 ****               0 ****  **** 
   7404  GOL          15076 ****               0 ****  **** 
   7405  GOL          15077 ****               0 ****  **** 
   7406  GOL          15078 ****               0 ****  **** 
   7407  GOL          15079 ****               0 ****  **** 
   7408  GOL          15080 ****               0 ****  **** 
   7409  GOL          15081 ****               0 ****  **** 
   7410  GOL          15082 ****               0 ****  **** 
   7411  GOL          15083 ****               0 ****  **** 
   7412  GOL          15084 ****               0 ****  **** 
   7413  GOL          15085 ****               0 ****  **** 
   7414  GOL          15086 ****               0 ****  **** 
   7415  GOL          15087 ****               0 ****  **** 
   7416  GOL          15088 ****               0 ****  **** 
   7417  GOL          15089 ****               0 ****  **** 
   7418  GOL          15090 ****               0 ****  **** 
   7419  GOL          15091 ****               0 ****  **** 
   7420  GOL          15092 ****               0 ****  **** 
   7421  GOL          15093 ****               0 ****  **** 
   7422  GOL          15094 ****               0 ****  **** 
   7423  GOL          15095 ****               0 ****  **** 
   7424  GOL          15096 ****               0 ****  **** 
   7425  GOL          15097 ****               0 ****  **** 
   7426  GOL          15098 ****               0 ****  **** 
   7427  GOL          15099 ****               0 ****  **** 
   7428  GOL          15100 ****               0 ****  **** 
   7429  GOL          15101 ****               0 ****  **** 
   7430  GOL          15102 ****               0 ****  **** 
   7431  GOL          15103 ****               0 ****  **** 
   7432  GOL          15104 ****               0 ****  **** 
   7433  GOL          15105 ****               0 ****  **** 
   7434  GOL          15106 ****               0 ****  **** 
   7435  GOL          15107 ****               0 ****  **** 
   7436  GOL          15108 ****               0 ****  **** 
   7437  GOL          15109 ****               0 ****  **** 
   7438  GOL          15110 ****               0 ****  **** 
   7439  GOL          15111 ****               0 ****  **** 
   7440  GOL          15112 ****               0 ****  **** 
   7441  GOL          15113 ****               0 ****  **** 
   7442  GOL          15114 ****               0 ****  **** 
   7443  GOL          15115 ****               0 ****  **** 
   7444  GOL          15116 ****               0 ****  **** 
   7445  GOL          15117 ****               0 ****  **** 
   7446  GOL          15118 ****               0 ****  **** 
   7447  GOL          15119 ****               0 ****  **** 
   7448  GOL          15120 ****               0 ****  **** 
   7449  GOL          15121 ****               0 ****  **** 
   7450  GOL          15122 ****               0 ****  **** 
   7451  GOL          15123 ****               0 ****  **** 
   7452  GOL          15124 ****               0 ****  **** 
   7453  GOL          15125 ****               0 ****  **** 
   7454  GOL          15126 ****               0 ****  **** 
   7455  GOL          15127 ****               0 ****  **** 
   7456  GOL          15128 ****               0 ****  **** 
   7457  GOL          15129 ****               0 ****  **** 
   7458  GOL          15130 ****               0 ****  **** 
   7459  GOL          15131 ****               0 ****  **** 
   7460  GOL          15132 ****               0 ****  **** 
   7461  GOL          15133 ****               0 ****  **** 
   7462  GOL          15134 ****               0 ****  **** 
   7463  GOL          15135 ****               0 ****  **** 
   7464  GOL          15136 ****               0 ****  **** 
   7465  GOL          15137 ****               0 ****  **** 
   7466  GOL          15138 ****               0 ****  **** 
   7467  GOL          15139 ****               0 ****  **** 
   7468  GOL          15140 ****               0 ****  **** 
   7469  GOL          15141 ****               0 ****  **** 
   7470  GOL          15142 ****               0 ****  **** 
   7471  GOL          15143 ****               0 ****  **** 
   7472  GOL          15144 ****               0 ****  **** 
   7473  GOL          15145 ****               0 ****  **** 
   7474  GOL          15146 ****               0 ****  **** 
   7475  GOL          15147 ****               0 ****  **** 
   7476  GOL          15148 ****               0 ****  **** 
   7477  GOL          15149 ****               0 ****  **** 
   7478  GOL          15150 ****               0 ****  **** 
   7479  GOL          15151 ****               0 ****  **** 
   7480  GOL          15152 ****               0 ****  **** 
   7481  GOL          15153 ****               0 ****  **** 
   7482  GOL          15154 ****               0 ****  **** 
   7483  GOL          15155 ****               0 ****  **** 
   7484  GOL          15156 ****               0 ****  **** 
   7485  GOL          15157 ****               0 ****  **** 
   7486  GOL          15158 ****               0 ****  **** 
   7487  GOL          15159 ****               0 ****  **** 
   7488  GOL          15160 ****               0 ****  **** 
   7489  GOL          15161 ****               0 ****  **** 
   7490  GOL          15162 ****               0 ****  **** 
   7491  GOL          15163 ****               0 ****  **** 
   7492  GOL          15164 ****               0 ****  **** 
   7493  GOL          15165 ****               0 ****  **** 
   7494  GOL          15166 ****               0 ****  **** 
   7495  GOL          15167 ****               0 ****  **** 
   7496  GOL          15168 ****               0 ****  **** 
   7497  GOL          15169 ****               0 ****  **** 
   7498  GOL          15170 ****               0 ****  **** 
   7499  GOL          15171 ****               0 ****  **** 
   7500  GOL          15172 ****               0 ****  **** 
   7501  GOL          15173 ****               0 ****  **** 
   7502  GOL          15174 ****               0 ****  **** 
   7503  GOL          15175 ****               0 ****  **** 
   7504  GOL          15176 ****               0 ****  **** 
   7505  GOL          15177 ****               0 ****  **** 
   7506  GOL          15178 ****               0 ****  **** 
   7507  GOL          15179 ****               0 ****  **** 
   7508  GOL          15180 ****               0 ****  **** 
   7509  GOL          15181 ****               0 ****  **** 
   7510  GOL          15182 ****               0 ****  **** 
   7511  GOL          15183 ****               0 ****  **** 
   7512  GOL          15184 ****               0 ****  **** 
   7513  GOL          15185 ****               0 ****  **** 
   7514  GOL          15186 ****               0 ****  **** 
   7515  GOL          15187 ****               0 ****  **** 
   7516  GOL          15188 ****               0 ****  **** 
   7517  GOL          15189 ****               0 ****  **** 
   7518  GOL          15190 ****               0 ****  **** 
   7519  GOL          15191 ****               0 ****  **** 
   7520  GOL          15192 ****               0 ****  **** 
   7521  GOL          15193 ****               0 ****  **** 
   7522  GOL          15194 ****               0 ****  **** 
   7523  GOL          15195 ****               0 ****  **** 
   7524  GOL          15196 ****               0 ****  **** 
   7525  GOL          15197 ****               0 ****  **** 
   7526  GOL          15198 ****               0 ****  **** 
   7527  GOL          15199 ****               0 ****  **** 
   7528  GOL          15200 ****               0 ****  **** 
   7529  GOL          15201 ****               0 ****  **** 
   7530  GOL          15202 ****               0 ****  **** 
   7531  GOL          15203 ****               0 ****  **** 
   7532  GOL          15204 ****               0 ****  **** 
   7533  GOL          15205 ****               0 ****  **** 
   7534  GOL          15206 ****               0 ****  **** 
   7535  GOL          15207 ****               0 ****  **** 
   7536  GOL          15208 ****               0 ****  **** 
   7537  GOL          15209 ****               0 ****  **** 
   7538  GOL          15210 ****               0 ****  **** 
   7539  GOL          15211 ****               0 ****  **** 
   7540  GOL          15212 ****               0 ****  **** 
   7541  GOL          15213 ****               0 ****  **** 
   7542  GOL          15214 ****               0 ****  **** 
   7543  GOL          15215 ****               0 ****  **** 
   7544  GOL          15216 ****               0 ****  **** 
   7545  GOL          15217 ****               0 ****  **** 
   7546  GOL          15218 ****               0 ****  **** 
   7547  GOL          15219 ****               0 ****  **** 
   7548  GOL          15220 ****               0 ****  **** 
   7549  GOL          15221 ****               0 ****  **** 
   7550  GOL          15222 ****               0 ****  **** 
   7551  GOL          15223 ****               0 ****  **** 
   7552  GOL          15224 ****               0 ****  **** 
   7553  GOL          15225 ****               0 ****  **** 
   7554  GOL          15226 ****               0 ****  **** 
   7555  GOL          15227 ****               0 ****  **** 
   7556  GOL          15228 ****               0 ****  **** 
   7557  GOL          15229 ****               0 ****  **** 
   7558  GOL          15230 ****               0 ****  **** 
   7559  GOL          15231 ****               0 ****  **** 
   7560  GOL          15232 ****               0 ****  **** 
   7561  GOL          15233 ****               0 ****  **** 
   7562  GOL          15234 ****               0 ****  **** 
   7563  GOL          15235 ****               0 ****  **** 
   7564  GOL          15236 ****               0 ****  **** 
   7565  GOL          15237 ****               0 ****  **** 
   7566  GOL          15238 ****               0 ****  **** 
   7567  GOL          15239 ****               0 ****  **** 
   7568  GOL          15240 ****               0 ****  **** 
   7569  GOL          15241 ****               0 ****  **** 
   7570  GOL          15242 ****               0 ****  **** 
   7571  GOL          15243 ****               0 ****  **** 
   7572  GOL          15244 ****               0 ****  **** 
   7573  GOL          15245 ****               0 ****  **** 
   7574  GOL          15246 ****               0 ****  **** 
   7575  GOL          15247 ****               0 ****  **** 
   7576  GOL          15248 ****               0 ****  **** 
   7577  GOL          15249 ****               0 ****  **** 
   7578  GOL          15250 ****               0 ****  **** 
   7579  GOL          15251 ****               0 ****  **** 
   7580  GOL          15252 ****               0 ****  **** 
   7581  GOL          15253 ****               0 ****  **** 
   7582  GOL          15254 ****               0 ****  **** 
   7583  GOL          15255 ****               0 ****  **** 
   7584  GOL          15256 ****               0 ****  **** 
   7585  GOL          15257 ****               0 ****  **** 
   7586  GOL          15258 ****               0 ****  **** 
   7587  GOL          15259 ****               0 ****  **** 
   7588  GOL          15260 ****               0 ****  **** 
   7589  GOL          15261 ****               0 ****  **** 
   7590  GOL          15262 ****               0 ****  **** 
   7591  GOL          15263 ****               0 ****  **** 
   7592  GOL          15264 ****               0 ****  **** 
   7593  GOL          15265 ****               0 ****  **** 
   7594  GOL          15266 ****               0 ****  **** 
   7595  GOL          15267 ****               0 ****  **** 
   7596  GOL          15268 ****               0 ****  **** 
   7597  GOL          15269 ****               0 ****  **** 
   7598  GOL          15270 ****               0 ****  **** 
   7599  GOL          15271 ****               0 ****  **** 
   7600  GOL          15272 ****               0 ****  **** 
   7601  GOL          15273 ****               0 ****  **** 
   7602  GOL          15274 ****               0 ****  **** 
   7603  GOL          15275 ****               0 ****  **** 
   7604  GOL          15276 ****               0 ****  **** 
   7605  GOL          15277 ****               0 ****  **** 
   7606  GOL          15278 ****               0 ****  **** 
   7607  GOL          15279 ****               0 ****  **** 
   7608  GOL          15280 ****               0 ****  **** 
   7609  GOL          15281 ****               0 ****  **** 
   7610  GOL          15282 ****               0 ****  **** 
   7611  GOL          15283 ****               0 ****  **** 
   7612  GOL          15284 ****               0 ****  **** 
   7613  GOL          15285 ****               0 ****  **** 
   7614  GOL          15286 ****               0 ****  **** 
   7615  GOL          15287 ****               0 ****  **** 
   7616  GOL          15288 ****               0 ****  **** 
   7617  GOL          15289 ****               0 ****  **** 
   7618  GOL          15290 ****               0 ****  **** 
   7619  GOL          15291 ****               0 ****  **** 
   7620  GOL          15292 ****               0 ****  **** 
   7621  GOL          15293 ****               0 ****  **** 
   7622  GOL          15294 ****               0 ****  **** 
   7623  GOL          15295 ****               0 ****  **** 
   7624  GOL          15296 ****               0 ****  **** 
   7625  GOL          15297 ****               0 ****  **** 
   7626  GOL          15298 ****               0 ****  **** 
   7627  GOL          15299 ****               0 ****  **** 
   7628  GOL          15300 ****               0 ****  **** 
   7629  GOL          15301 ****               0 ****  **** 
   7630  GOL          15302 ****               0 ****  **** 
   7631  GOL          15303 ****               0 ****  **** 
   7632  GOL          15304 ****               0 ****  **** 
   7633  GOL          15305 ****               0 ****  **** 
   7634  GOL          15306 ****               0 ****  **** 
   7635  GOL          15307 ****               0 ****  **** 
   7636  GOL          15308 ****               0 ****  **** 
   7637  GOL          15309 ****               0 ****  **** 
   7638  GOL          15310 ****               0 ****  **** 
   7639  GOL          15311 ****               0 ****  **** 
   7640  GOL          15312 ****               0 ****  **** 
   7641  GOL          15313 ****               0 ****  **** 
   7642  GOL          15314 ****               0 ****  **** 
   7643  GOL          15315 ****               0 ****  **** 
   7644  GOL          15316 ****               0 ****  **** 
   7645  GOL          15317 ****               0 ****  **** 
   7646  GOL          15318 ****               0 ****  **** 
   7647  GOL          15319 ****               0 ****  **** 
   7648  GOL          15320 ****               0 ****  **** 
   7649  GOL          15321 ****               0 ****  **** 
   7650  GOL          15322 ****               0 ****  **** 
   7651  GOL          15323 ****               0 ****  **** 
   7652  GOL          15324 ****               0 ****  **** 
   7653  GOL          15325 ****               0 ****  **** 
   7654  GOL          15326 ****               0 ****  **** 
   7655  GOL          15327 ****               0 ****  **** 
   7656  GOL          15328 ****               0 ****  **** 
   7657  GOL          15329 ****               0 ****  **** 
   7658  GOL          15330 ****               0 ****  **** 
   7659  GOL          15331 ****               0 ****  **** 
   7660  GOL          15332 ****               0 ****  **** 
   7661  GOL          15333 ****               0 ****  **** 
   7662  GOL          15334 ****               0 ****  **** 
   7663  GOL          15335 ****               0 ****  **** 
   7664  GOL          15336 ****               0 ****  **** 
   7665  GOL          15337 ****               0 ****  **** 
   7666  GOL          15338 ****               0 ****  **** 
   7667  GOL          15339 ****               0 ****  **** 
   7668  GOL          15340 ****               0 ****  **** 
   7669  GOL          15341 ****               0 ****  **** 
   7670  GOL          15342 ****               0 ****  **** 
   7671  GOL          15343 ****               0 ****  **** 
   7672  GOL          15344 ****               0 ****  **** 
   7673  GOL          15345 ****               0 ****  **** 
   7674  GOL          15346 ****               0 ****  **** 
   7675  GOL          15347 ****               0 ****  **** 
   7676  GOL          15348 ****               0 ****  **** 
   7677  GOL          15349 ****               0 ****  **** 
   7678  GOL          15350 ****               0 ****  **** 
   7679  GOL          15351 ****               0 ****  **** 
   7680  GOL          15352 ****               0 ****  **** 
   7681  GOL          15353 ****               0 ****  **** 
   7682  GOL          15354 ****               0 ****  **** 
   7683  GOL          15355 ****               0 ****  **** 
   7684  GOL          15356 ****               0 ****  **** 
   7685  GOL          15357 ****               0 ****  **** 
   7686  GOL          15358 ****               0 ****  **** 
   7687  GOL          15359 ****               0 ****  **** 
   7688  GOL          15360 ****               0 ****  **** 
   7689  GOL          15361 ****               0 ****  **** 
   7690  GOL          15362 ****               0 ****  **** 
   7691  GOL          15363 ****               0 ****  **** 
   7692  GOL          15364 ****               0 ****  **** 
   7693  GOL          15365 ****               0 ****  **** 
   7694  GOL          15366 ****               0 ****  **** 
   7695  GOL          15367 ****               0 ****  **** 
   7696  GOL          15368 ****               0 ****  **** 
   7697  GOL          15369 ****               0 ****  **** 
   7698  GOL          15370 ****               0 ****  **** 
   7699  GOL          15371 ****               0 ****  **** 
   7700  GOL          15372 ****               0 ****  **** 
   7701  GOL          15373 ****               0 ****  **** 
   7702  GOL          15374 ****               0 ****  **** 
   7703  GOL          15375 ****               0 ****  **** 
   7704  GOL          15376 ****               0 ****  **** 
   7705  GOL          15377 ****               0 ****  **** 
   7706  GOL          15378 ****               0 ****  **** 
   7707  GOL          15379 ****               0 ****  **** 
   7708  GOL          15380 ****               0 ****  **** 
   7709  GOL          15381 ****               0 ****  **** 
   7710  GOL          15382 ****               0 ****  **** 
   7711  GOL          15383 ****               0 ****  **** 
   7712  GOL          15384 ****               0 ****  **** 
   7713  GOL          15385 ****               0 ****  **** 
   7714  GOL          15386 ****               0 ****  **** 
   7715  GOL          15387 ****               0 ****  **** 
   7716  GOL          15388 ****               0 ****  **** 
   7717  GOL          15389 ****               0 ****  **** 
   7718  GOL          15390 ****               0 ****  **** 
   7719  GOL          15391 ****               0 ****  **** 
   7720  GOL          15392 ****               0 ****  **** 
   7721  GOL          15393 ****               0 ****  **** 
   7722  GOL          15394 ****               0 ****  **** 
   7723  GOL          15395 ****               0 ****  **** 
   7724  GOL          15396 ****               0 ****  **** 
   7725  GOL          15397 ****               0 ****  **** 
   7726  GOL          15398 ****               0 ****  **** 
   7727  GOL          15399 ****               0 ****  **** 
   7728  GOL          15400 ****               0 ****  **** 
   7729  GOL          15401 ****               0 ****  **** 
   7730  GOL          15402 ****               0 ****  **** 
   7731  GOL          15403 ****               0 ****  **** 
   7732  GOL          15404 ****               0 ****  **** 
   7733  GOL          15405 ****               0 ****  **** 
   7734  GOL          15406 ****               0 ****  **** 
   7735  GOL          15407 ****               0 ****  **** 
   7736  GOL          15408 ****               0 ****  **** 
   7737  GOL          15409 ****               0 ****  **** 
   7738  GOL          15410 ****               0 ****  **** 
   7739  GOL          15411 ****               0 ****  **** 
   7740  GOL          15412 ****               0 ****  **** 
   7741  GOL          15413 ****               0 ****  **** 
   7742  GOL          15414 ****               0 ****  **** 
   7743  GOL          15415 ****               0 ****  **** 
   7744  GOL          15416 ****               0 ****  **** 
   7745  GOL          15417 ****               0 ****  **** 
   7746  GOL          15418 ****               0 ****  **** 
   7747  GOL          15419 ****               0 ****  **** 
   7748  GOL          15420 ****               0 ****  **** 
   7749  GOL          15421 ****               0 ****  **** 
   7750  GOL          15422 ****               0 ****  **** 
   7751  GOL          15423 ****               0 ****  **** 
   7752  GOL          15424 ****               0 ****  **** 
   7753  GOL          15425 ****               0 ****  **** 
   7754  GOL          15426 ****               0 ****  **** 
   7755  GOL          15427 ****               0 ****  **** 
   7756  GOL          15428 ****               0 ****  **** 
   7757  GOL          15429 ****               0 ****  **** 
   7758  GOL          15430 ****               0 ****  **** 
   7759  GOL          15431 ****               0 ****  **** 
   7760  GOL          15432 ****               0 ****  **** 
   7761  GOL          15433 ****               0 ****  **** 
   7762  GOL          15434 ****               0 ****  **** 
   7763  GOL          15435 ****               0 ****  **** 
   7764  GOL          15436 ****               0 ****  **** 
   7765  GOL          15437 ****               0 ****  **** 
   7766  GOL          15438 ****               0 ****  **** 
   7767  GOL          15439 ****               0 ****  **** 
   7768  GOL          15440 ****               0 ****  **** 
   7769  GOL          15441 ****               0 ****  **** 
   7770  GOL          15442 ****               0 ****  **** 
   7771  GOL          15443 ****               0 ****  **** 
   7772  GOL          15444 ****               0 ****  **** 
   7773  GOL          15445 ****               0 ****  **** 
   7774  GOL          15446 ****               0 ****  **** 
   7775  GOL          15447 ****               0 ****  **** 
   7776  GOL          15448 ****               0 ****  **** 
   7777  GOL          15449 ****               0 ****  **** 
   7778  GOL          15450 ****               0 ****  **** 
   7779  GOL          15451 ****               0 ****  **** 
   7780  GOL          15452 ****               0 ****  **** 
   7781  GOL          15453 ****               0 ****  **** 
   7782  GOL          15454 ****               0 ****  **** 
   7783  GOL          15455 ****               0 ****  **** 
   7784  GOL          15456 ****               0 ****  **** 
   7785  GOL          15457 ****               0 ****  **** 
   7786  GOL          15458 ****               0 ****  **** 
   7787  GOL          15459 ****               0 ****  **** 
   7788  GOL          15460 ****               0 ****  **** 
   7789  GOL          15461 ****               0 ****  **** 
   7790  GOL          15462 ****               0 ****  **** 
   7791  GOL          15463 ****               0 ****  **** 
   7792  GOL          15464 ****               0 ****  **** 
   7793  GOL          15465 ****               0 ****  **** 
   7794  GOL          15466 ****               0 ****  **** 
   7795  GOL          15467 ****               0 ****  **** 
   7796  GOL          15468 ****               0 ****  **** 
   7797  GOL          15469 ****               0 ****  **** 
   7798  GOL          15470 ****               0 ****  **** 
   7799  GOL          15471 ****               0 ****  **** 
   7800  GOL          15472 ****               0 ****  **** 
   7801  GOL          15473 ****               0 ****  **** 
   7802  GOL          15474 ****               0 ****  **** 
   7803  GOL          15475 ****               0 ****  **** 
   7804  GOL          15476 ****               0 ****  **** 
   7805  GOL          15477 ****               0 ****  **** 
   7806  GOL          15478 ****               0 ****  **** 
   7807  GOL          15479 ****               0 ****  **** 
   7808  GOL          15480 ****               0 ****  **** 
   7809  GOL          15481 ****               0 ****  **** 
   7810  GOL          15482 ****               0 ****  **** 
   7811  GOL          15483 ****               0 ****  **** 
   7812  GOL          15484 ****               0 ****  **** 
   7813  GOL          15485 ****               0 ****  **** 
   7814  GOL          15486 ****               0 ****  **** 
   7815  GOL          15487 ****               0 ****  **** 
   7816  GOL          15488 ****               0 ****  **** 
   7817  GOL          15489 ****               0 ****  **** 
   7818  GOL          15490 ****               0 ****  **** 
   7819  GOL          15491 ****               0 ****  **** 
   7820  GOL          15492 ****               0 ****  **** 
   7821  GOL          15493 ****               0 ****  **** 
   7822  GOL          15494 ****               0 ****  **** 
   7823  GOL          15495 ****               0 ****  **** 
   7824  GOL          15496 ****               0 ****  **** 
   7825  GOL          15497 ****               0 ****  **** 
   7826  GOL          15498 ****               0 ****  **** 
   7827  GOL          15499 ****               0 ****  **** 
   7828  GOL          15500 ****               0 ****  **** 
   7829  GOL          15501 ****               0 ****  **** 
   7830  GOL          15502 ****               0 ****  **** 
   7831  GOL          15503 ****               0 ****  **** 
   7832  GOL          15504 ****               0 ****  **** 
   7833  GOL          15505 ****               0 ****  **** 
   7834  GOL          15506 ****               0 ****  **** 
   7835  GOL          15507 ****               0 ****  **** 
   7836  GOL          15508 ****               0 ****  **** 
